
*** ChampSim Multicore Out-of-Order Simulator ***

Warmup Instructions: 25000000
Simulation Instructions: 25000000
Number of CPUs: 1
LLC sets: 2048
LLC ways: 16
Off-chip DRAM Size: 4096 MB Channels: 1 Width: 64-bit Data Rate: 6400 MT/s
CPU 0 runs ./traces/trace1.champsimtrace.xz
.xz
CPU 0 Bimodal branch predictor
BTB has LRU replacement policy
ITLB has LRU replacement policy
DTLB has LRU replacement policy
CPU 0 STLB arbitrary stride prefetcher
STLB has LRU replacement policy
L1I has LRU replacement policy
L1D has LRU replacement policy
L2C has LRU replacement policy
LLC has LRU replacement policy
Heartbeat CPU 0 instructions: 10000003 cycles: 2821742 heartbeat IPC: 3.54391 cumulative IPC: 3.54391 (Simulation time: 0 hr 0 min 18 sec) 
Heartbeat CPU 0 instructions: 20000003 cycles: 5632208 heartbeat IPC: 3.55813 cumulative IPC: 3.55101 (Simulation time: 0 hr 0 min 35 sec) 

Warmup complete CPU 0 instructions: 25000004 cycles: 7043175 (Simulation time: 0 hr 0 min 43 sec) 

Heartbeat CPU 0 instructions: 30000002 cycles: 23373861 heartbeat IPC: 0.563645 cumulative IPC: 0.306172 (Simulation time: 0 hr 1 min 2 sec) 
Heartbeat CPU 0 instructions: 40000001 cycles: 58302291 heartbeat IPC: 0.2863 cumulative IPC: 0.292631 (Simulation time: 0 hr 1 min 41 sec) 
Heartbeat CPU 0 instructions: 50000000 cycles: 92013107 heartbeat IPC: 0.296641 cumulative IPC: 0.294222 (Simulation time: 0 hr 2 min 21 sec) 
Finished CPU 0 instructions: 25000000 cycles: 84969934 cumulative IPC: 0.294222 (Simulation time: 0 hr 2 min 21 sec) 

ChampSim completed all CPUs

Region of Interest Statistics

CPU 0 cumulative IPC: 0.294222 instructions: 25000000 cycles: 84969934
ITLB TOTAL     ACCESS:    4431509  HIT:    4431509  MISS:          0  HIT %:        100  MISS %:          0   MPKI: 0
ITLB LOAD TRANSLATION ACCESS:    4431509  HIT:    4431509  MISS:          0  HIT %:        100  MISS %:          0   MPKI: 0
ITLB PREFETCH  REQUESTED:          0  ISSUED:          0  USEFUL:          0  USELESS:          0
ITLB USEFUL LOAD PREFETCHES:          0 PREFETCH ISSUED TO LOWER LEVEL:          0  ACCURACY: -nan
ITLB TIMELY PREFETCHES:          0 LATE PREFETCHES: 0 DROPPED PREFETCHES: 0
ITLB PREFETCHES SAME FILL-ORIGIN LEVEL: 0 DIFFERENT FILL-ORIGIN LEVEL: 0
ITLB AVERAGE MISS LATENCY: -nan cycles
ITLB RQ	ACCESS:    4786418	FORWARD:          0	MERGED:     354909	TO_CACHE:    4431509

DTLB TOTAL     ACCESS:    3707174  HIT:    3044236  MISS:     662938  HIT %:    82.1174  MISS %:    17.8826   MPKI: 26.5175
DTLB LOAD TRANSLATION ACCESS:    3707174  HIT:    3044236  MISS:     662938  HIT %:    82.1174  MISS %:    17.8826   MPKI: 26.5175
DTLB PREFETCH  REQUESTED:          0  ISSUED:          0  USEFUL:          0  USELESS:          0
DTLB USEFUL LOAD PREFETCHES:          0 PREFETCH ISSUED TO LOWER LEVEL:          0  ACCURACY: -nan
DTLB TIMELY PREFETCHES:          0 LATE PREFETCHES: 0 DROPPED PREFETCHES: 0
DTLB PREFETCHES SAME FILL-ORIGIN LEVEL: 0 DIFFERENT FILL-ORIGIN LEVEL: 0
DTLB AVERAGE MISS LATENCY: 43.7107 cycles
DTLB RQ	ACCESS:    4307129	FORWARD:          0	MERGED:     590996	TO_CACHE:    3716133

STLB TOTAL     ACCESS:    1405071  HIT:     408425  MISS:     996646  HIT %:    29.0679  MISS %:    70.9321   MPKI: 39.8658
STLB LOAD TRANSLATION ACCESS:     662938  HIT:     121557  MISS:     541381  HIT %:    18.3361  MISS %:    81.6639   MPKI: 21.6552
STLB PREFETCH TRANSLATION ACCESS:     742133  HIT:     286868  MISS:     455265  HIT %:    38.6545  MISS %:    61.3455   MPKI: 18.2106
STLB PREFETCH  REQUESTED:     858435  ISSUED:     857182  USEFUL:      25761  USELESS:     429783
STLB USEFUL LOAD PREFETCHES:      25761 PREFETCH ISSUED TO LOWER LEVEL:     492186  ACCURACY: 5.234
STLB TIMELY PREFETCHES:      25761 LATE PREFETCHES: 7098 DROPPED PREFETCHES: 29826
STLB PREFETCHES SAME FILL-ORIGIN LEVEL: 492186 DIFFERENT FILL-ORIGIN LEVEL: 0
STLB AVERAGE MISS LATENCY: 82.2452 cycles
STLB RQ	ACCESS:     662941	FORWARD:          0	MERGED:          0	TO_CACHE:     662941
STLB PQ	ACCESS:     857182	FORWARD:          0	MERGED:      42520	TO_CACHE:     814662

STLB Hit, L1D data hit: 0
STLB Hit, L2C data hit: 0
STLB Hit, LLC data hit: 0
STLB Hit, LLC data miss: 0
STLB STLB hints to L2: 0
L1D TOTAL     ACCESS:    4290495  HIT:    3085222  MISS:    1205273  HIT %:    71.9083  MISS %:    28.0917   MPKI: 48.2109
L1D LOAD      ACCESS:    3181830  HIT:    2045921  MISS:    1135909  HIT %:    64.3001  MISS %:    35.6999   MPKI: 45.4364
L1D RFO       ACCESS:    1108665  HIT:    1039301  MISS:      69364  HIT %:    93.7435  MISS %:    6.25653   MPKI: 2.77456
L1D PREFETCH  REQUESTED:          0  ISSUED:          0  USEFUL:          0  USELESS:          0
L1D USEFUL LOAD PREFETCHES:          0 PREFETCH ISSUED TO LOWER LEVEL:          0  ACCURACY: -nan
L1D TIMELY PREFETCHES:          0 LATE PREFETCHES: 0 DROPPED PREFETCHES: 0
L1D PREFETCHES SAME FILL-ORIGIN LEVEL: 0 DIFFERENT FILL-ORIGIN LEVEL: 0
L1D AVERAGE MISS LATENCY: 125.027 cycles
L1D RQ	ACCESS:    6164491	FORWARD:          0	MERGED:    2898547	TO_CACHE:    3198462
L1D WQ	ACCESS:    1108674	FORWARD:      67482	MERGED:          7	TO_CACHE:    1108667

L1D UNIQUE REGIONS ACCESSED: 0
L1D REGIONS CONFLICTS: 0
L1D Cross Page Prefetch Requests: 0
L1D Same Page Prefetch Requests: 0
L1D ROI Sum of L1D PQ occupancy: 0
L1D PREFETCHES PUSHED FROM L2C: 0
L1I TOTAL     ACCESS:    4786416  HIT:    4786416  MISS:          0  HIT %:        100  MISS %:          0   MPKI: 0
L1I LOAD      ACCESS:    4786416  HIT:    4786416  MISS:          0  HIT %:        100  MISS %:          0   MPKI: 0
L1I PREFETCH  REQUESTED:          0  ISSUED:          0  USEFUL:          0  USELESS:          0
L1I USEFUL LOAD PREFETCHES:          0 PREFETCH ISSUED TO LOWER LEVEL:          0  ACCURACY: -nan
L1I TIMELY PREFETCHES:          0 LATE PREFETCHES: 0 DROPPED PREFETCHES: 0
L1I PREFETCHES SAME FILL-ORIGIN LEVEL: 0 DIFFERENT FILL-ORIGIN LEVEL: 0
L1I AVERAGE MISS LATENCY: -nan cycles
L1I RQ	ACCESS:    7072003	FORWARD:          0	MERGED:    2285585	TO_CACHE:    4786418

BTB TOTAL     ACCESS:    3283965  HIT:    3283957  MISS:          8  HIT %:    99.9998  MISS %: 0.000243608   MPKI: 0.00032
BTB BRANCH_DIRECT_JUMP	ACCESS:     568311  HIT:     568309  MISS:          2
BTB BRANCH_INDIRECT	ACCESS:          0  HIT:          0  MISS:          0
BTB BRANCH_CONDITIONAL	ACCESS:    1606986  HIT:    1606982  MISS:          4
BTB BRANCH_DIRECT_CALL	ACCESS:     554334  HIT:     554333  MISS:          1
BTB BRANCH_INDIRECT_CALL	ACCESS:          0  HIT:          0  MISS:          0
BTB BRANCH_RETURN	ACCESS:     554334  HIT:     554333  MISS:          1
BTB BRANCH_OTHER ACCESS:          0  HIT:          0  MISS:          0

L2C TOTAL     ACCESS:    2885879  HIT:    1810407  MISS:    1075472  HIT %:    62.7333  MISS %:    37.2667   MPKI: 43.0189
L2C LOAD      ACCESS:    1135909  HIT:     408314  MISS:     727595  HIT %:     35.946  MISS %:     64.054   MPKI: 29.1038
L2C DATA LOAD MPKI: 29.1038
L2C INSTRUCTION LOAD MPKI: 0
L2C RFO       ACCESS:      69364  HIT:      38209  MISS:      31155  HIT %:    55.0848  MISS %:    44.9152   MPKI: 1.2462
L2C WRITEBACK ACCESS:     554349  HIT:     554349  MISS:          0  HIT %:        100  MISS %:          0   MPKI: 0
L2C LOAD TRANSLATION ACCESS:     563690  HIT:     431562  MISS:     132128  HIT %:    76.5602  MISS %:    23.4398   MPKI: 5.28512
L2C PREFETCH TRANSLATION ACCESS:     562567  HIT:     377973  MISS:     184594  HIT %:    67.1872  MISS %:    32.8128   MPKI: 7.38376
L2C PREFETCH  REQUESTED:          0  ISSUED:          0  USEFUL:     147735  USELESS:      36788
L2C USEFUL LOAD PREFETCHES:     147735 PREFETCH ISSUED TO LOWER LEVEL:          0  ACCURACY: inf
L2C TIMELY PREFETCHES:     147735 LATE PREFETCHES: 0 DROPPED PREFETCHES: 0
L2C PREFETCHES SAME FILL-ORIGIN LEVEL: 0 DIFFERENT FILL-ORIGIN LEVEL: 0
L2C AVERAGE MISS LATENCY: 133.48 cycles
L2C RQ	ACCESS:    2331531	FORWARD:          0	MERGED:          0	TO_CACHE:    2331531
L2C WQ	ACCESS:     554349	FORWARD:          0	MERGED:          0	TO_CACHE:     554349

L2C Instructions Evicting Data 0
L2C Translations Evicting Data 185814
L2C Data Evicting Data 572759
L2C Instructions Evicting Instructions 0
L2C Translations Evicting Instructions 0
L2C Data Evicting Instructions 0
L2C Instructions Evicting Translations 0
L2C Translations Evicting Translations 130908
L2C Data Evicting Translations 185991
L2C Dense regions hint from L2: 0
PSCL5 TOTAL     ACCESS:    1026472  HIT:    1026472  MISS:          0  HIT %:        100  MISS %:          0   MPKI: 0
PSCL5 LOAD TRANSLATION ACCESS:     534284  HIT:     534284  MISS:          0  HIT %:        100  MISS %:          0   MPKI: 0
PSCL5 PREFETCH TRANSLATION ACCESS:     492188  HIT:     492188  MISS:          0  HIT %:        100  MISS %:          0   MPKI: 0
PSCL5 PREFETCH  REQUESTED:          0  ISSUED:          0  USEFUL:          0  USELESS:          0
PSCL5 USEFUL LOAD PREFETCHES:          0 PREFETCH ISSUED TO LOWER LEVEL:          0  ACCURACY: -nan
PSCL5 TIMELY PREFETCHES:          0 LATE PREFETCHES: 0 DROPPED PREFETCHES: 0
PSCL5 PREFETCHES SAME FILL-ORIGIN LEVEL: 0 DIFFERENT FILL-ORIGIN LEVEL: 0

PSCL4 TOTAL     ACCESS:    1026472  HIT:    1026472  MISS:          0  HIT %:        100  MISS %:          0   MPKI: 0
PSCL4 LOAD TRANSLATION ACCESS:     534284  HIT:     534284  MISS:          0  HIT %:        100  MISS %:          0   MPKI: 0
PSCL4 PREFETCH TRANSLATION ACCESS:     492188  HIT:     492188  MISS:          0  HIT %:        100  MISS %:          0   MPKI: 0
PSCL4 PREFETCH  REQUESTED:          0  ISSUED:          0  USEFUL:          0  USELESS:          0
PSCL4 USEFUL LOAD PREFETCHES:          0 PREFETCH ISSUED TO LOWER LEVEL:          0  ACCURACY: -nan
PSCL4 TIMELY PREFETCHES:          0 LATE PREFETCHES: 0 DROPPED PREFETCHES: 0
PSCL4 PREFETCHES SAME FILL-ORIGIN LEVEL: 0 DIFFERENT FILL-ORIGIN LEVEL: 0

PSCL3 TOTAL     ACCESS:    1026163  HIT:    1026163  MISS:          0  HIT %:        100  MISS %:          0   MPKI: 0
PSCL3 LOAD TRANSLATION ACCESS:     534284  HIT:     534284  MISS:          0  HIT %:        100  MISS %:          0   MPKI: 0
PSCL3 PREFETCH TRANSLATION ACCESS:     491879  HIT:     491879  MISS:          0  HIT %:        100  MISS %:          0   MPKI: 0
PSCL3 PREFETCH  REQUESTED:          0  ISSUED:          0  USEFUL:          0  USELESS:          0
PSCL3 USEFUL LOAD PREFETCHES:          0 PREFETCH ISSUED TO LOWER LEVEL:          0  ACCURACY: -nan
PSCL3 TIMELY PREFETCHES:          0 LATE PREFETCHES: 0 DROPPED PREFETCHES: 0
PSCL3 PREFETCHES SAME FILL-ORIGIN LEVEL: 0 DIFFERENT FILL-ORIGIN LEVEL: 0

PSCL2 TOTAL     ACCESS:    1003395  HIT:     922711  MISS:      80684  HIT %:    91.9589  MISS %:     8.0411   MPKI: 3.22736
PSCL2 LOAD TRANSLATION ACCESS:     585561  HIT:     504877  MISS:      80684  HIT %:    86.2211  MISS %:    13.7789   MPKI: 3.22736
PSCL2 PREFETCH TRANSLATION ACCESS:     417834  HIT:     417834  MISS:          0  HIT %:        100  MISS %:          0   MPKI: 0
PSCL2 PREFETCH  REQUESTED:          0  ISSUED:          0  USEFUL:          0  USELESS:          0
PSCL2 USEFUL LOAD PREFETCHES:          0 PREFETCH ISSUED TO LOWER LEVEL:          0  ACCURACY: -nan
PSCL2 TIMELY PREFETCHES:          0 LATE PREFETCHES: 0 DROPPED PREFETCHES: 0
PSCL2 PREFETCHES SAME FILL-ORIGIN LEVEL: 0 DIFFERENT FILL-ORIGIN LEVEL: 0

LLC TOTAL     ACCESS:    1630164  HIT:     978709  MISS:     651455  HIT %:    60.0375  MISS %:    39.9625   MPKI: 26.0582
LLC LOAD      ACCESS:     727595  HIT:      86085  MISS:     641510  HIT %:    11.8314  MISS %:    88.1686   MPKI: 25.6604
LLC RFO       ACCESS:      31155  HIT:      31151  MISS:          4  HIT %:    99.9872  MISS %:   0.012839   MPKI: 0.00016
LLC WRITEBACK ACCESS:     554692  HIT:     554692  MISS:          0  HIT %:        100  MISS %:          0   MPKI: 0
LLC LOAD TRANSLATION ACCESS:     132128  HIT:     128359  MISS:       3769  HIT %:    97.1475  MISS %:    2.85254   MPKI: 0.15076
LLC PREFETCH TRANSLATION ACCESS:     184594  HIT:     178422  MISS:       6172  HIT %:    96.6564  MISS %:    3.34355   MPKI: 0.24688
LLC PREFETCH  REQUESTED:          0  ISSUED:          0  USEFUL:       3852  USELESS:       2327
LLC USEFUL LOAD PREFETCHES:       3852 PREFETCH ISSUED TO LOWER LEVEL:          0  ACCURACY: inf
LLC TIMELY PREFETCHES:       3852 LATE PREFETCHES: 0 DROPPED PREFETCHES: 0
LLC PREFETCHES SAME FILL-ORIGIN LEVEL: 0 DIFFERENT FILL-ORIGIN LEVEL: 0
LLC AVERAGE MISS LATENCY: 170.634 cycles
LLC RQ	ACCESS:    1075473	FORWARD:          0	MERGED:          0	TO_CACHE:    1075473
LLC WQ	ACCESS:     554692	FORWARD:          0	MERGED:          0	TO_CACHE:     554692

LLC Dense regions hint to LLC: 0

RAW hits: 486041
Loads Generated: 6650535
Loads sent to L1D: 6164491
Stores Generated: 1108672
Stores sent to L1D: 1108674
Major fault: 0 Minor fault: 23115
Allocated PAGES: 23115
CPU 0 STLB arbitrary stride prefetcher final stats
Degree: 5

DRAM Statistics
 CHANNEL 0
 RQ ROW_BUFFER_HIT:        925  ROW_BUFFER_MISS:     650530
 DBUS_CONGESTED:          3
 WQ ROW_BUFFER_HIT:     232470  ROW_BUFFER_MISS:     321955  FULL:          0

 AVG_CONGESTED_CYCLE: 7
 All warmup complete: 2
Channel 0 Bank busy for read cycles: 0
Channel 0 Bank busy for write cycles: 0
Channel 0
Rank 0
0banks busy for read cycles: 2094315
0banks busy for write cycles: 48701
1banks busy for read cycles: 18951079
1banks busy for write cycles: 3941030
2banks busy for read cycles: 13533454
2banks busy for write cycles: 6058602
3banks busy for read cycles: 11903066
3banks busy for write cycles: 9333124
4banks busy for read cycles: 3899779
4banks busy for write cycles: 8528472
5banks busy for read cycles: 59733
5banks busy for write cycles: 3715362
6banks busy for read cycles: 266
6banks busy for write cycles: 1560008
7banks busy for read cycles: 0
7banks busy for write cycles: 756775
8banks busy for read cycles: 0
8banks busy for write cycles: 586169

CPU 0 Branch Prediction Accuracy: 99.9685% MPKI: 0.04912 Average ROB Occupancy at Mispredict: 155.577
Branch types
NOT_BRANCH: 21105652 84.4226%
BRANCH_DIRECT_JUMP: 568311 2.27324%
BRANCH_INDIRECT: 0 0%
BRANCH_CONDITIONAL: 2217337 8.86935%
BRANCH_DIRECT_CALL: 554334 2.21734%
BRANCH_INDIRECT_CALL: 0 0%
BRANCH_RETURN: 554334 2.21734%
BRANCH_OTHER: 0 0%

DRAM PAGES: 1048576
Allocated PAGES: 23115
