
*** ChampSim Multicore Out-of-Order Simulator ***

Warmup Instructions: 25000000
Simulation Instructions: 25000000
Number of CPUs: 1
LLC sets: 2048
LLC ways: 16
Off-chip DRAM Size: 4096 MB Channels: 1 Width: 64-bit Data Rate: 6400 MT/s
CPU 0 runs ./traces/trace2.champsimtrace.xz
.xz
CPU 0 Bimodal branch predictor
BTB has LRU replacement policy
ITLB has LRU replacement policy
DTLB has LRU replacement policy
STLB has LRU replacement policy
L1I has LRU replacement policy
CPU 0 L1D IP-based stride prefetcher
L1D has LRU replacement policy
L2C has LRU replacement policy
LLC has LRU replacement policy
Heartbeat CPU 0 instructions: 10000002 cycles: 3736838 heartbeat IPC: 2.67606 cumulative IPC: 2.67606 (Simulation time: 0 hr 0 min 21 sec) 
Heartbeat CPU 0 instructions: 20000001 cycles: 7475187 heartbeat IPC: 2.67498 cumulative IPC: 2.67552 (Simulation time: 0 hr 0 min 40 sec) 

Warmup complete CPU 0 instructions: 25000001 cycles: 9343327 (Simulation time: 0 hr 0 min 50 sec) 

Heartbeat CPU 0 instructions: 30000001 cycles: 25785642 heartbeat IPC: 0.546136 cumulative IPC: 0.304093 (Simulation time: 0 hr 1 min 6 sec) 
Heartbeat CPU 0 instructions: 40000002 cycles: 58371420 heartbeat IPC: 0.306882 cumulative IPC: 0.305947 (Simulation time: 0 hr 1 min 36 sec) 
Heartbeat CPU 0 instructions: 50000000 cycles: 89891852 heartbeat IPC: 0.317254 cumulative IPC: 0.310372 (Simulation time: 0 hr 2 min 7 sec) 
Finished CPU 0 instructions: 25000000 cycles: 80548547 cumulative IPC: 0.310372 (Simulation time: 0 hr 2 min 7 sec) 

ChampSim completed all CPUs

Region of Interest Statistics

CPU 0 cumulative IPC: 0.310372 instructions: 25000000 cycles: 80548547
ITLB TOTAL     ACCESS:    4707979  HIT:    4707979  MISS:          0  HIT %:        100  MISS %:          0   MPKI: 0
ITLB LOAD TRANSLATION ACCESS:    4707979  HIT:    4707979  MISS:          0  HIT %:        100  MISS %:          0   MPKI: 0
ITLB PREFETCH  REQUESTED:          0  ISSUED:          0  USEFUL:          0  USELESS:          0
ITLB USEFUL LOAD PREFETCHES:          0 PREFETCH ISSUED TO LOWER LEVEL:          0  ACCURACY: -nan
ITLB TIMELY PREFETCHES:          0 LATE PREFETCHES: 0 DROPPED PREFETCHES: 0
ITLB PREFETCHES SAME FILL-ORIGIN LEVEL: 0 DIFFERENT FILL-ORIGIN LEVEL: 0
ITLB AVERAGE MISS LATENCY: -nan cycles
ITLB RQ	ACCESS:    4793393	FORWARD:          0	MERGED:      85415	TO_CACHE:    4707978

DTLB TOTAL     ACCESS:    3869029  HIT:    3835013  MISS:      34016  HIT %:    99.1208  MISS %:   0.879187   MPKI: 1.36064
DTLB LOAD TRANSLATION ACCESS:    3869029  HIT:    3835013  MISS:      34016  HIT %:    99.1208  MISS %:   0.879187   MPKI: 1.36064
DTLB PREFETCH  REQUESTED:          0  ISSUED:          0  USEFUL:          0  USELESS:          0
DTLB USEFUL LOAD PREFETCHES:          0 PREFETCH ISSUED TO LOWER LEVEL:          0  ACCURACY: -nan
DTLB TIMELY PREFETCHES:          0 LATE PREFETCHES: 0 DROPPED PREFETCHES: 0
DTLB PREFETCHES SAME FILL-ORIGIN LEVEL: 0 DIFFERENT FILL-ORIGIN LEVEL: 0
DTLB AVERAGE MISS LATENCY: 106.514 cycles
DTLB RQ	ACCESS:    4553706	FORWARD:          0	MERGED:     684561	TO_CACHE:    3869145

STLB TOTAL     ACCESS:    1471187  HIT:    1438500  MISS:      32687  HIT %:    97.7782  MISS %:    2.22181   MPKI: 1.30748
STLB LOAD TRANSLATION ACCESS:      34016  HIT:       1331  MISS:      32685  HIT %:    3.91286  MISS %:    96.0871   MPKI: 1.3074
STLB TRANSLATION FROM L1D PREFETCHER ACCESS:    1437171  HIT:    1437169  MISS:          2  HIT %:    99.9999  MISS %: 0.000139162   MPKI: 8e-05
STLB PREFETCH  REQUESTED:          0  ISSUED:          0  USEFUL:          2  USELESS:          0
STLB USEFUL LOAD PREFETCHES:          2 PREFETCH ISSUED TO LOWER LEVEL:          0  ACCURACY: inf
STLB TIMELY PREFETCHES:          2 LATE PREFETCHES: 0 DROPPED PREFETCHES: 0
STLB PREFETCHES SAME FILL-ORIGIN LEVEL: 0 DIFFERENT FILL-ORIGIN LEVEL: 0
STLB AVERAGE MISS LATENCY: 101.484 cycles
STLB RQ	ACCESS:    5818423	FORWARD:          0	MERGED:    4347236	TO_CACHE:    1471187

STLB Hit, L1D data hit: 0
STLB Hit, L2C data hit: 0
STLB Hit, LLC data hit: 0
STLB Hit, LLC data miss: 0
STLB STLB hints to L2: 0
L1D TOTAL     ACCESS:    7234905  HIT:    5469929  MISS:    1764976  HIT %:    75.6047  MISS %:    24.3953   MPKI: 70.599
L1D LOAD      ACCESS:    4190583  HIT:    3793171  MISS:     397412  HIT %:    90.5165  MISS %:    9.48345   MPKI: 15.8965
L1D RFO       ACCESS:     333332  HIT:     332687  MISS:        645  HIT %:    99.8065  MISS %:   0.193501   MPKI: 0.0258
L1D PREFETCH  ACCESS:    2710990  HIT:    1344071  MISS:    1366919  HIT %:    49.5786  MISS %:    50.4214   MPKI: 54.6768
AGUS PREFETCH L1 MISS: 0
L1D PREFETCH  REQUESTED:   13864317  ISSUED:   13864183  USEFUL:    1351833  USELESS:      15104
L1D USEFUL LOAD PREFETCHES:    1351833 PREFETCH ISSUED TO LOWER LEVEL:    1685738  ACCURACY: 80.1924
L1D TIMELY PREFETCHES:    1351833 LATE PREFETCHES: 318795 DROPPED PREFETCHES: 0
L1D PREFETCHES SAME FILL-ORIGIN LEVEL: 1685738 DIFFERENT FILL-ORIGIN LEVEL: 0
L1D AVERAGE MISS LATENCY: 9.05802e+06 cycles
L1D RQ	ACCESS:    8972941	FORWARD:          0	MERGED:    4751016	TO_CACHE:    4220370
L1D WQ	ACCESS:     370377	FORWARD:       1580	MERGED:      37041	TO_CACHE:     333336
L1D PQ	ACCESS:    8079776	FORWARD:          0	MERGED:    2295344	TO_CACHE:    5784407

L1D UNIQUE REGIONS ACCESSED: 0
L1D REGIONS CONFLICTS: 0
L1D Cross Page Prefetch Requests: 0
L1D Same Page Prefetch Requests: 27187643
L1D ROI Sum of L1D PQ occupancy: 80978717
L1D PREFETCHES PUSHED FROM L2C: 0
L1I TOTAL     ACCESS:    4793393  HIT:    4793393  MISS:          0  HIT %:        100  MISS %:          0   MPKI: 0
L1I LOAD      ACCESS:    4793393  HIT:    4793393  MISS:          0  HIT %:        100  MISS %:          0   MPKI: 0
L1I PREFETCH  REQUESTED:          0  ISSUED:          0  USEFUL:          0  USELESS:          0
L1I USEFUL LOAD PREFETCHES:          0 PREFETCH ISSUED TO LOWER LEVEL:          0  ACCURACY: -nan
L1I TIMELY PREFETCHES:          0 LATE PREFETCHES: 0 DROPPED PREFETCHES: 0
L1I PREFETCHES SAME FILL-ORIGIN LEVEL: 0 DIFFERENT FILL-ORIGIN LEVEL: 0
L1I AVERAGE MISS LATENCY: -nan cycles
L1I RQ	ACCESS:    7158494	FORWARD:          0	MERGED:    2365101	TO_CACHE:    4793393

BTB TOTAL     ACCESS:    5953193  HIT:    5953095  MISS:         98  HIT %:    99.9984  MISS %: 0.00164618   MPKI: 0.00392
BTB BRANCH_DIRECT_JUMP	ACCESS:      85874  HIT:      85848  MISS:         26
BTB BRANCH_INDIRECT	ACCESS:          0  HIT:          0  MISS:          0
BTB BRANCH_CONDITIONAL	ACCESS:    5783213  HIT:    5783164  MISS:         49
BTB BRANCH_DIRECT_CALL	ACCESS:      42053  HIT:      42043  MISS:         10
BTB BRANCH_INDIRECT_CALL	ACCESS:          0  HIT:          0  MISS:          0
BTB BRANCH_RETURN	ACCESS:      42053  HIT:      42040  MISS:         13
BTB BRANCH_OTHER ACCESS:          0  HIT:          0  MISS:          0

L2C TOTAL     ACCESS:    1801072  HIT:      31164  MISS:    1769908  HIT %:     1.7303  MISS %:    98.2697   MPKI: 70.7963
L2C LOAD      ACCESS:      78616  HIT:       1191  MISS:      77425  HIT %:    1.51496  MISS %:     98.485   MPKI: 3.097
L2C DATA LOAD MPKI: 3.097
L2C INSTRUCTION LOAD MPKI: 0
L2C RFO       ACCESS:        621  HIT:         44  MISS:        577  HIT %:    7.08535  MISS %:    92.9147   MPKI: 0.02308
L2C PREFETCH  ACCESS:    1685738  HIT:       1318  MISS:    1684420  HIT %:  0.0781853  MISS %:    99.9218   MPKI: 67.3768
AGUS PREFETCH L1 MISS: 0
L2C DATA PREFETCH MPKI: 67.3768
L2C INSTRUCTION PREFETCH MPKI: 0
L2C WRITEBACK ACCESS:       2774  HIT:       2768  MISS:          6  HIT %:    99.7837  MISS %:   0.216294   MPKI: 0.00024
L2C LOAD TRANSLATION ACCESS:      33319  HIT:      25841  MISS:       7478  HIT %:    77.5563  MISS %:    22.4437   MPKI: 0.29912
L2C TRANSLATION FROM L1D PREFETCHER ACCESS:          4  HIT:          2  MISS:          2  HIT %:         50  MISS %:         50   MPKI: 8e-05
L2C PREFETCH  REQUESTED:          0  ISSUED:          0  USEFUL:        712  USELESS:    1683566
L2C USEFUL LOAD PREFETCHES:        712 PREFETCH ISSUED TO LOWER LEVEL:    1684420  ACCURACY: 0.0422697
L2C TIMELY PREFETCHES:        712 LATE PREFETCHES: 0 DROPPED PREFETCHES: 0
L2C PREFETCHES SAME FILL-ORIGIN LEVEL: 0 DIFFERENT FILL-ORIGIN LEVEL: 0
L2C AVERAGE MISS LATENCY: 106.652 cycles
L2C RQ	ACCESS:     112561	FORWARD:          0	MERGED:          0	TO_CACHE:     112560
L2C WQ	ACCESS:       2774	FORWARD:          1	MERGED:          0	TO_CACHE:       2774
L2C PQ	ACCESS:    1685738	FORWARD:          0	MERGED:          0	TO_CACHE:    1685738

L2C Instructions Evicting Data 0
L2C Translations Evicting Data 7451
L2C Data Evicting Data 1754985
L2C Instructions Evicting Instructions 0
L2C Translations Evicting Instructions 0
L2C Data Evicting Instructions 0
L2C Instructions Evicting Translations 0
L2C Translations Evicting Translations 29
L2C Data Evicting Translations 7437
L2C Dense regions hint from L2: 0
PSCL5 TOTAL     ACCESS:      32687  HIT:      32687  MISS:          0  HIT %:        100  MISS %:          0   MPKI: 0
PSCL5 LOAD TRANSLATION ACCESS:      32685  HIT:      32685  MISS:          0  HIT %:        100  MISS %:          0   MPKI: 0
PSCL5 TRANSLATION FROM L1D PREFETCHER ACCESS:          2  HIT:          2  MISS:          0  HIT %:        100  MISS %:          0   MPKI: 0
PSCL5 PREFETCH  REQUESTED:          0  ISSUED:          0  USEFUL:          0  USELESS:          0
PSCL5 USEFUL LOAD PREFETCHES:          0 PREFETCH ISSUED TO LOWER LEVEL:          0  ACCURACY: -nan
PSCL5 TIMELY PREFETCHES:          0 LATE PREFETCHES: 0 DROPPED PREFETCHES: 0
PSCL5 PREFETCHES SAME FILL-ORIGIN LEVEL: 0 DIFFERENT FILL-ORIGIN LEVEL: 0

PSCL4 TOTAL     ACCESS:      32687  HIT:      32687  MISS:          0  HIT %:        100  MISS %:          0   MPKI: 0
PSCL4 LOAD TRANSLATION ACCESS:      32685  HIT:      32685  MISS:          0  HIT %:        100  MISS %:          0   MPKI: 0
PSCL4 TRANSLATION FROM L1D PREFETCHER ACCESS:          2  HIT:          2  MISS:          0  HIT %:        100  MISS %:          0   MPKI: 0
PSCL4 PREFETCH  REQUESTED:          0  ISSUED:          0  USEFUL:          0  USELESS:          0
PSCL4 USEFUL LOAD PREFETCHES:          0 PREFETCH ISSUED TO LOWER LEVEL:          0  ACCURACY: -nan
PSCL4 TIMELY PREFETCHES:          0 LATE PREFETCHES: 0 DROPPED PREFETCHES: 0
PSCL4 PREFETCHES SAME FILL-ORIGIN LEVEL: 0 DIFFERENT FILL-ORIGIN LEVEL: 0

PSCL3 TOTAL     ACCESS:      32687  HIT:      32687  MISS:          0  HIT %:        100  MISS %:          0   MPKI: 0
PSCL3 LOAD TRANSLATION ACCESS:      32685  HIT:      32685  MISS:          0  HIT %:        100  MISS %:          0   MPKI: 0
PSCL3 TRANSLATION FROM L1D PREFETCHER ACCESS:          2  HIT:          2  MISS:          0  HIT %:        100  MISS %:          0   MPKI: 0
PSCL3 PREFETCH  REQUESTED:          0  ISSUED:          0  USEFUL:          0  USELESS:          0
PSCL3 USEFUL LOAD PREFETCHES:          0 PREFETCH ISSUED TO LOWER LEVEL:          0  ACCURACY: -nan
PSCL3 TIMELY PREFETCHES:          0 LATE PREFETCHES: 0 DROPPED PREFETCHES: 0
PSCL3 PREFETCHES SAME FILL-ORIGIN LEVEL: 0 DIFFERENT FILL-ORIGIN LEVEL: 0

PSCL2 TOTAL     ACCESS:      32687  HIT:      31953  MISS:        734  HIT %:    97.7545  MISS %:    2.24554   MPKI: 0.02936
PSCL2 LOAD TRANSLATION ACCESS:      32687  HIT:      31953  MISS:        734  HIT %:    97.7545  MISS %:    2.24554   MPKI: 0.02936
PSCL2 PREFETCH  REQUESTED:          0  ISSUED:          0  USEFUL:          0  USELESS:          0
PSCL2 USEFUL LOAD PREFETCHES:          0 PREFETCH ISSUED TO LOWER LEVEL:          0  ACCURACY: -nan
PSCL2 TIMELY PREFETCHES:          0 LATE PREFETCHES: 0 DROPPED PREFETCHES: 0
PSCL2 PREFETCHES SAME FILL-ORIGIN LEVEL: 0 DIFFERENT FILL-ORIGIN LEVEL: 0

LLC TOTAL     ACCESS:    1772669  HIT:       3264  MISS:    1769405  HIT %:   0.184129  MISS %:    99.8159   MPKI: 70.7762
LLC LOAD      ACCESS:      77425  HIT:        128  MISS:      77297  HIT %:   0.165321  MISS %:    99.8347   MPKI: 3.09188
LLC RFO       ACCESS:        577  HIT:          0  MISS:        577  HIT %:          0  MISS %:        100   MPKI: 0.02308
LLC PREFETCH  ACCESS:    1684420  HIT:         51  MISS:    1684369  HIT %: 0.00302775  MISS %:     99.997   MPKI: 67.3748
AGUS PREFETCH L1 MISS: 0
LLC WRITEBACK ACCESS:       2767  HIT:       2761  MISS:          6  HIT %:    99.7832  MISS %:   0.216841   MPKI: 0.00024
LLC LOAD TRANSLATION ACCESS:       7478  HIT:        324  MISS:       7154  HIT %:    4.33271  MISS %:    95.6673   MPKI: 0.28616
LLC TRANSLATION FROM L1D PREFETCHER ACCESS:          2  HIT:          0  MISS:          2  HIT %:          0  MISS %:        100   MPKI: 8e-05
LLC PREFETCH  REQUESTED:          0  ISSUED:          0  USEFUL:         77  USELESS:    1683665
LLC USEFUL LOAD PREFETCHES:         77 PREFETCH ISSUED TO LOWER LEVEL:    1684369  ACCURACY: 0.00457144
LLC TIMELY PREFETCHES:         77 LATE PREFETCHES: 0 DROPPED PREFETCHES: 0
LLC PREFETCHES SAME FILL-ORIGIN LEVEL: 0 DIFFERENT FILL-ORIGIN LEVEL: 0
LLC AVERAGE MISS LATENCY: 76.6153 cycles
LLC RQ	ACCESS:      85482	FORWARD:          0	MERGED:          0	TO_CACHE:      85482
LLC WQ	ACCESS:       2767	FORWARD:          0	MERGED:          0	TO_CACHE:       2767
LLC PQ	ACCESS:    1684420	FORWARD:          0	MERGED:          0	TO_CACHE:    1684420

LLC Dense regions hint to LLC: 0

RAW hits: 4006
Loads Generated: 8976947
Loads sent to L1D: 8972941
Stores Generated: 370377
Stores sent to L1D: 370377
Major fault: 0 Minor fault: 48857
Allocated PAGES: 48857
CPU 0 L1D IP-based stride prefetcher final stats
Degree: 5

DRAM Statistics
 CHANNEL 0
 RQ ROW_BUFFER_HIT:    1660983  ROW_BUFFER_MISS:     108416
 DBUS_CONGESTED:        143
 WQ ROW_BUFFER_HIT:        784  ROW_BUFFER_MISS:       1978  FULL:          0

 AVG_CONGESTED_CYCLE: 5
 All warmup complete: 2
Channel 0 Bank busy for read cycles: 0
Channel 0 Bank busy for write cycles: 0
Channel 0
Rank 0
0banks busy for read cycles: 36632062
0banks busy for write cycles: 1406
1banks busy for read cycles: 11619465
1banks busy for write cycles: 350382
2banks busy for read cycles: 17702509
2banks busy for write cycles: 154081
3banks busy for read cycles: 8815431
3banks busy for write cycles: 64582
4banks busy for read cycles: 1637511
4banks busy for write cycles: 25909
5banks busy for read cycles: 1959921
5banks busy for write cycles: 9313
6banks busy for read cycles: 1489999
6banks busy for write cycles: 4407
7banks busy for read cycles: 67086
7banks busy for write cycles: 2989
8banks busy for read cycles: 10551
8banks busy for write cycles: 944

CPU 0 Branch Prediction Accuracy: 99.1323% MPKI: 3.09396 Average ROB Occupancy at Mispredict: 113.138
Branch types
NOT_BRANCH: 16085563 64.3423%
BRANCH_DIRECT_JUMP: 85874 0.343496%
BRANCH_INDIRECT: 0 0%
BRANCH_CONDITIONAL: 8744101 34.9764%
BRANCH_DIRECT_CALL: 42053 0.168212%
BRANCH_INDIRECT_CALL: 0 0%
BRANCH_RETURN: 42053 0.168212%
BRANCH_OTHER: 0 0%

DRAM PAGES: 1048576
Allocated PAGES: 48857
