
*** ChampSim Multicore Out-of-Order Simulator ***

Warmup Instructions: 25000000
Simulation Instructions: 25000000
Number of CPUs: 1
LLC sets: 2048
LLC ways: 16
Off-chip DRAM Size: 4096 MB Channels: 1 Width: 64-bit Data Rate: 6400 MT/s
CPU 0 runs ./traces/trace2.champsimtrace.xz
.xz
CPU 0 Bimodal branch predictor
BTB has LRU replacement policy
ITLB has LRU replacement policy
DTLB has LRU replacement policy
STLB has LRU replacement policy
L1I has LRU replacement policy
CPU 0 L1D IP-based stride prefetcher
L1D has LRU replacement policy
L2C has LRU replacement policy
LLC has LRU replacement policy
Heartbeat CPU 0 instructions: 10000002 cycles: 3737379 heartbeat IPC: 2.67567 cumulative IPC: 2.67567 (Simulation time: 0 hr 0 min 19 sec) 
Heartbeat CPU 0 instructions: 20000001 cycles: 7476251 heartbeat IPC: 2.6746 cumulative IPC: 2.67514 (Simulation time: 0 hr 0 min 37 sec) 

Warmup complete CPU 0 instructions: 25000001 cycles: 9344680 (Simulation time: 0 hr 0 min 46 sec) 

Heartbeat CPU 0 instructions: 30000001 cycles: 31888731 heartbeat IPC: 0.409627 cumulative IPC: 0.221788 (Simulation time: 0 hr 1 min 5 sec) 
Heartbeat CPU 0 instructions: 40000002 cycles: 76506953 heartbeat IPC: 0.224124 cumulative IPC: 0.22334 (Simulation time: 0 hr 1 min 43 sec) 
Heartbeat CPU 0 instructions: 50000000 cycles: 119456286 heartbeat IPC: 0.232832 cumulative IPC: 0.227042 (Simulation time: 0 hr 2 min 18 sec) 
Finished CPU 0 instructions: 25000000 cycles: 110111628 cumulative IPC: 0.227042 (Simulation time: 0 hr 2 min 18 sec) 

ChampSim completed all CPUs

Region of Interest Statistics

CPU 0 cumulative IPC: 0.227042 instructions: 25000000 cycles: 110111628
ITLB TOTAL     ACCESS:    4970967  HIT:    4970967  MISS:          0  HIT %:        100  MISS %:          0   MPKI: 0
ITLB LOAD TRANSLATION ACCESS:    4970967  HIT:    4970967  MISS:          0  HIT %:        100  MISS %:          0   MPKI: 0
ITLB PREFETCH  REQUESTED:          0  ISSUED:          0  USEFUL:          0  USELESS:          0
ITLB USEFUL LOAD PREFETCHES:          0 PREFETCH ISSUED TO LOWER LEVEL:          0  ACCURACY: -nan
ITLB TIMELY PREFETCHES:          0 LATE PREFETCHES: 0 DROPPED PREFETCHES: 0
ITLB PREFETCHES SAME FILL-ORIGIN LEVEL: 0 DIFFERENT FILL-ORIGIN LEVEL: 0
ITLB AVERAGE MISS LATENCY: -nan cycles
ITLB RQ	ACCESS:    5056381	FORWARD:          0	MERGED:      85415	TO_CACHE:    4970966

DTLB TOTAL     ACCESS:    3869385  HIT:    3835369  MISS:      34016  HIT %:    99.1209  MISS %:   0.879106   MPKI: 1.36064
DTLB LOAD TRANSLATION ACCESS:    3869385  HIT:    3835369  MISS:      34016  HIT %:    99.1209  MISS %:   0.879106   MPKI: 1.36064
DTLB PREFETCH  REQUESTED:          0  ISSUED:          0  USEFUL:          0  USELESS:          0
DTLB USEFUL LOAD PREFETCHES:          0 PREFETCH ISSUED TO LOWER LEVEL:          0  ACCURACY: -nan
DTLB TIMELY PREFETCHES:          0 LATE PREFETCHES: 0 DROPPED PREFETCHES: 0
DTLB PREFETCHES SAME FILL-ORIGIN LEVEL: 0 DIFFERENT FILL-ORIGIN LEVEL: 0
DTLB AVERAGE MISS LATENCY: 106.401 cycles
DTLB RQ	ACCESS:    4553719	FORWARD:          0	MERGED:     684218	TO_CACHE:    3869501

STLB TOTAL     ACCESS:    1471981  HIT:    1439294  MISS:      32687  HIT %:    97.7794  MISS %:    2.22061   MPKI: 1.30748
STLB LOAD TRANSLATION ACCESS:      34016  HIT:       1331  MISS:      32685  HIT %:    3.91286  MISS %:    96.0871   MPKI: 1.3074
STLB TRANSLATION FROM L1D PREFETCHER ACCESS:    1437965  HIT:    1437963  MISS:          2  HIT %:    99.9999  MISS %: 0.000139085   MPKI: 8e-05
STLB PREFETCH  REQUESTED:          0  ISSUED:          0  USEFUL:          2  USELESS:          0
STLB USEFUL LOAD PREFETCHES:          2 PREFETCH ISSUED TO LOWER LEVEL:          0  ACCURACY: inf
STLB TIMELY PREFETCHES:          2 LATE PREFETCHES: 0 DROPPED PREFETCHES: 0
STLB PREFETCHES SAME FILL-ORIGIN LEVEL: 0 DIFFERENT FILL-ORIGIN LEVEL: 0
STLB AVERAGE MISS LATENCY: 101.36 cycles
STLB RQ	ACCESS:    3686905	FORWARD:          0	MERGED:    2214924	TO_CACHE:    1471981

STLB Hit, L1D data hit: 0
STLB Hit, L2C data hit: 0
STLB Hit, LLC data hit: 0
STLB Hit, LLC data miss: 0
STLB STLB hints to L2: 0
L1D TOTAL     ACCESS:    6110159  HIT:    4352791  MISS:    1757368  HIT %:    71.2386  MISS %:    28.7614   MPKI: 70.2947
L1D LOAD      ACCESS:    4034791  HIT:    3245487  MISS:     789304  HIT %:    80.4375  MISS %:    19.5625   MPKI: 31.5722
L1D RFO       ACCESS:     333337  HIT:     332684  MISS:        653  HIT %:    99.8041  MISS %:   0.195898   MPKI: 0.02612
L1D PREFETCH  ACCESS:    1742031  HIT:     774620  MISS:     967411  HIT %:    44.4665  MISS %:    55.5335   MPKI: 38.6964
AGUS PREFETCH L1 MISS: 0
L1D PREFETCH  REQUESTED:    8562157  ISSUED:    8562155  USEFUL:     959885  USELESS:       7537
L1D USEFUL LOAD PREFETCHES:     959885 PREFETCH ISSUED TO LOWER LEVEL:    1615374  ACCURACY: 59.4218
L1D TIMELY PREFETCHES:     959885 LATE PREFETCHES: 647935 DROPPED PREFETCHES: 0
L1D PREFETCHES SAME FILL-ORIGIN LEVEL: 1615374 DIFFERENT FILL-ORIGIN LEVEL: 0
L1D AVERAGE MISS LATENCY: 2.42802e+07 cycles
L1D RQ	ACCESS:    8972937	FORWARD:          0	MERGED:    4751007	TO_CACHE:    4220378
L1D WQ	ACCESS:     370377	FORWARD:       1567	MERGED:      37036	TO_CACHE:     333341
L1D PQ	ACCESS:    4909266	FORWARD:          0	MERGED:    1256362	TO_CACHE:    3652889

L1D UNIQUE REGIONS ACCESSED: 0
L1D REGIONS CONFLICTS: 0
L1D Cross Page Prefetch Requests: 0
L1D Same Page Prefetch Requests: 16352669
L1D ROI Sum of L1D PQ occupancy: 49265689
L1D PREFETCHES PUSHED FROM L2C: 0
L1I TOTAL     ACCESS:    5056381  HIT:    5056381  MISS:          0  HIT %:        100  MISS %:          0   MPKI: 0
L1I LOAD      ACCESS:    5056381  HIT:    5056381  MISS:          0  HIT %:        100  MISS %:          0   MPKI: 0
L1I PREFETCH  REQUESTED:          0  ISSUED:          0  USEFUL:          0  USELESS:          0
L1I USEFUL LOAD PREFETCHES:          0 PREFETCH ISSUED TO LOWER LEVEL:          0  ACCURACY: -nan
L1I TIMELY PREFETCHES:          0 LATE PREFETCHES: 0 DROPPED PREFETCHES: 0
L1I PREFETCHES SAME FILL-ORIGIN LEVEL: 0 DIFFERENT FILL-ORIGIN LEVEL: 0
L1I AVERAGE MISS LATENCY: -nan cycles
L1I RQ	ACCESS:    7563186	FORWARD:          0	MERGED:    2506805	TO_CACHE:    5056381

BTB TOTAL     ACCESS:    5953193  HIT:    5953095  MISS:         98  HIT %:    99.9984  MISS %: 0.00164618   MPKI: 0.00392
BTB BRANCH_DIRECT_JUMP	ACCESS:      85874  HIT:      85848  MISS:         26
BTB BRANCH_INDIRECT	ACCESS:          0  HIT:          0  MISS:          0
BTB BRANCH_CONDITIONAL	ACCESS:    5783213  HIT:    5783164  MISS:         49
BTB BRANCH_DIRECT_CALL	ACCESS:      42053  HIT:      42043  MISS:         10
BTB BRANCH_INDIRECT_CALL	ACCESS:          0  HIT:          0  MISS:          0
BTB BRANCH_RETURN	ACCESS:      42053  HIT:      42040  MISS:         13
BTB BRANCH_OTHER ACCESS:          0  HIT:          0  MISS:          0

L2C TOTAL     ACCESS:    1793462  HIT:      30419  MISS:    1763043  HIT %:    1.69611  MISS %:    98.3039   MPKI: 70.5217
L2C LOAD      ACCESS:     141369  HIT:        960  MISS:     140409  HIT %:   0.679074  MISS %:    99.3209   MPKI: 5.61636
L2C DATA LOAD MPKI: 5.61636
L2C INSTRUCTION LOAD MPKI: 0
L2C RFO       ACCESS:        626  HIT:         27  MISS:        599  HIT %:     4.3131  MISS %:    95.6869   MPKI: 0.02396
L2C PREFETCH  ACCESS:    1615373  HIT:        821  MISS:    1614552  HIT %:  0.0508242  MISS %:    99.9492   MPKI: 64.5821
AGUS PREFETCH L1 MISS: 0
L2C DATA PREFETCH MPKI: 64.5821
L2C INSTRUCTION PREFETCH MPKI: 0
L2C WRITEBACK ACCESS:       2771  HIT:       2765  MISS:          6  HIT %:    99.7835  MISS %:   0.216528   MPKI: 0.00024
L2C LOAD TRANSLATION ACCESS:      33319  HIT:      25844  MISS:       7475  HIT %:    77.5654  MISS %:    22.4346   MPKI: 0.299
L2C TRANSLATION FROM L1D PREFETCHER ACCESS:          4  HIT:          2  MISS:          2  HIT %:         50  MISS %:         50   MPKI: 8e-05
L2C PREFETCH  REQUESTED:          0  ISSUED:          0  USEFUL:        476  USELESS:    1613796
L2C USEFUL LOAD PREFETCHES:        476 PREFETCH ISSUED TO LOWER LEVEL:    1614553  ACCURACY: 0.0294818
L2C TIMELY PREFETCHES:        476 LATE PREFETCHES: 0 DROPPED PREFETCHES: 0
L2C PREFETCHES SAME FILL-ORIGIN LEVEL: 0 DIFFERENT FILL-ORIGIN LEVEL: 0
L2C AVERAGE MISS LATENCY: 106.427 cycles
L2C RQ	ACCESS:     175318	FORWARD:          0	MERGED:          0	TO_CACHE:     175318
L2C WQ	ACCESS:       2771	FORWARD:          0	MERGED:          0	TO_CACHE:       2771
L2C PQ	ACCESS:    1615374	FORWARD:          0	MERGED:          0	TO_CACHE:    1615374

L2C Instructions Evicting Data 0
L2C Translations Evicting Data 7449
L2C Data Evicting Data 1748125
L2C Instructions Evicting Instructions 0
L2C Translations Evicting Instructions 0
L2C Data Evicting Instructions 0
L2C Instructions Evicting Translations 0
L2C Translations Evicting Translations 28
L2C Data Evicting Translations 7435
L2C Dense regions hint from L2: 0
PSCL5 TOTAL     ACCESS:      32687  HIT:      32687  MISS:          0  HIT %:        100  MISS %:          0   MPKI: 0
PSCL5 LOAD TRANSLATION ACCESS:      32685  HIT:      32685  MISS:          0  HIT %:        100  MISS %:          0   MPKI: 0
PSCL5 TRANSLATION FROM L1D PREFETCHER ACCESS:          2  HIT:          2  MISS:          0  HIT %:        100  MISS %:          0   MPKI: 0
PSCL5 PREFETCH  REQUESTED:          0  ISSUED:          0  USEFUL:          0  USELESS:          0
PSCL5 USEFUL LOAD PREFETCHES:          0 PREFETCH ISSUED TO LOWER LEVEL:          0  ACCURACY: -nan
PSCL5 TIMELY PREFETCHES:          0 LATE PREFETCHES: 0 DROPPED PREFETCHES: 0
PSCL5 PREFETCHES SAME FILL-ORIGIN LEVEL: 0 DIFFERENT FILL-ORIGIN LEVEL: 0

PSCL4 TOTAL     ACCESS:      32687  HIT:      32687  MISS:          0  HIT %:        100  MISS %:          0   MPKI: 0
PSCL4 LOAD TRANSLATION ACCESS:      32685  HIT:      32685  MISS:          0  HIT %:        100  MISS %:          0   MPKI: 0
PSCL4 TRANSLATION FROM L1D PREFETCHER ACCESS:          2  HIT:          2  MISS:          0  HIT %:        100  MISS %:          0   MPKI: 0
PSCL4 PREFETCH  REQUESTED:          0  ISSUED:          0  USEFUL:          0  USELESS:          0
PSCL4 USEFUL LOAD PREFETCHES:          0 PREFETCH ISSUED TO LOWER LEVEL:          0  ACCURACY: -nan
PSCL4 TIMELY PREFETCHES:          0 LATE PREFETCHES: 0 DROPPED PREFETCHES: 0
PSCL4 PREFETCHES SAME FILL-ORIGIN LEVEL: 0 DIFFERENT FILL-ORIGIN LEVEL: 0

PSCL3 TOTAL     ACCESS:      32687  HIT:      32687  MISS:          0  HIT %:        100  MISS %:          0   MPKI: 0
PSCL3 LOAD TRANSLATION ACCESS:      32685  HIT:      32685  MISS:          0  HIT %:        100  MISS %:          0   MPKI: 0
PSCL3 TRANSLATION FROM L1D PREFETCHER ACCESS:          2  HIT:          2  MISS:          0  HIT %:        100  MISS %:          0   MPKI: 0
PSCL3 PREFETCH  REQUESTED:          0  ISSUED:          0  USEFUL:          0  USELESS:          0
PSCL3 USEFUL LOAD PREFETCHES:          0 PREFETCH ISSUED TO LOWER LEVEL:          0  ACCURACY: -nan
PSCL3 TIMELY PREFETCHES:          0 LATE PREFETCHES: 0 DROPPED PREFETCHES: 0
PSCL3 PREFETCHES SAME FILL-ORIGIN LEVEL: 0 DIFFERENT FILL-ORIGIN LEVEL: 0

PSCL2 TOTAL     ACCESS:      32687  HIT:      31953  MISS:        734  HIT %:    97.7545  MISS %:    2.24554   MPKI: 0.02936
PSCL2 LOAD TRANSLATION ACCESS:      32687  HIT:      31953  MISS:        734  HIT %:    97.7545  MISS %:    2.24554   MPKI: 0.02936
PSCL2 PREFETCH  REQUESTED:          0  ISSUED:          0  USEFUL:          0  USELESS:          0
PSCL2 USEFUL LOAD PREFETCHES:          0 PREFETCH ISSUED TO LOWER LEVEL:          0  ACCURACY: -nan
PSCL2 TIMELY PREFETCHES:          0 LATE PREFETCHES: 0 DROPPED PREFETCHES: 0
PSCL2 PREFETCHES SAME FILL-ORIGIN LEVEL: 0 DIFFERENT FILL-ORIGIN LEVEL: 0

LLC TOTAL     ACCESS:    1765804  HIT:       3188  MISS:    1762616  HIT %:   0.180541  MISS %:    99.8195   MPKI: 70.5046
LLC LOAD      ACCESS:     140409  HIT:         85  MISS:     140324  HIT %:  0.0605374  MISS %:    99.9395   MPKI: 5.61296
LLC RFO       ACCESS:        599  HIT:          0  MISS:        599  HIT %:          0  MISS %:        100   MPKI: 0.02396
LLC PREFETCH  ACCESS:    1614552  HIT:         21  MISS:    1614531  HIT %: 0.00130067  MISS %:    99.9987   MPKI: 64.5812
AGUS PREFETCH L1 MISS: 0
LLC WRITEBACK ACCESS:       2767  HIT:       2761  MISS:          6  HIT %:    99.7832  MISS %:   0.216841   MPKI: 0.00024
LLC LOAD TRANSLATION ACCESS:       7475  HIT:        321  MISS:       7154  HIT %:    4.29431  MISS %:    95.7057   MPKI: 0.28616
LLC TRANSLATION FROM L1D PREFETCHER ACCESS:          2  HIT:          0  MISS:          2  HIT %:          0  MISS %:        100   MPKI: 8e-05
LLC PREFETCH  REQUESTED:          0  ISSUED:          0  USEFUL:         34  USELESS:    1612847
LLC USEFUL LOAD PREFETCHES:         34 PREFETCH ISSUED TO LOWER LEVEL:    1614531  ACCURACY: 0.00210587
LLC TIMELY PREFETCHES:         34 LATE PREFETCHES: 0 DROPPED PREFETCHES: 0
LLC PREFETCHES SAME FILL-ORIGIN LEVEL: 0 DIFFERENT FILL-ORIGIN LEVEL: 0
LLC AVERAGE MISS LATENCY: 76.4136 cycles
LLC RQ	ACCESS:     148485	FORWARD:          0	MERGED:          0	TO_CACHE:     148485
LLC WQ	ACCESS:       2767	FORWARD:          0	MERGED:          0	TO_CACHE:       2767
LLC PQ	ACCESS:    1614553	FORWARD:          0	MERGED:          0	TO_CACHE:    1614553

LLC Dense regions hint to LLC: 0

RAW hits: 4010
Loads Generated: 8976947
Loads sent to L1D: 8972937
Stores Generated: 370377
Stores sent to L1D: 370377
Major fault: 0 Minor fault: 48857
Allocated PAGES: 48857
CPU 0 L1D IP-based stride prefetcher final stats
Degree: 3

DRAM Statistics
 CHANNEL 0
 RQ ROW_BUFFER_HIT:    1655170  ROW_BUFFER_MISS:     107440
 DBUS_CONGESTED:        160
 WQ ROW_BUFFER_HIT:       1264  ROW_BUFFER_MISS:       1496  FULL:          0

 AVG_CONGESTED_CYCLE: 5
 All warmup complete: 2
Channel 0 Bank busy for read cycles: 0
Channel 0 Bank busy for write cycles: 0
Channel 0
Rank 0
0banks busy for read cycles: 57554577
0banks busy for write cycles: 1475
1banks busy for read cycles: 20882790
1banks busy for write cycles: 519598
2banks busy for read cycles: 17899610
2banks busy for write cycles: 205669
3banks busy for read cycles: 9662427
3banks busy for write cycles: 78549
4banks busy for read cycles: 3068517
4banks busy for write cycles: 41253
5banks busy for read cycles: 149772
5banks busy for write cycles: 12893
6banks busy for read cycles: 24109
6banks busy for write cycles: 3165
7banks busy for read cycles: 5179
7banks busy for write cycles: 1541
8banks busy for read cycles: 354
8banks busy for write cycles: 151

CPU 0 Branch Prediction Accuracy: 99.1323% MPKI: 3.09396 Average ROB Occupancy at Mispredict: 118.374
Branch types
NOT_BRANCH: 16085563 64.3423%
BRANCH_DIRECT_JUMP: 85874 0.343496%
BRANCH_INDIRECT: 0 0%
BRANCH_CONDITIONAL: 8744101 34.9764%
BRANCH_DIRECT_CALL: 42053 0.168212%
BRANCH_INDIRECT_CALL: 0 0%
BRANCH_RETURN: 42053 0.168212%
BRANCH_OTHER: 0 0%

DRAM PAGES: 1048576
Allocated PAGES: 48857
