
*** ChampSim Multicore Out-of-Order Simulator ***

Warmup Instructions: 25000000
Simulation Instructions: 25000000
Number of CPUs: 1
LLC sets: 2048
LLC ways: 16
Off-chip DRAM Size: 4096 MB Channels: 1 Width: 64-bit Data Rate: 6400 MT/s
CPU 0 runs ./traces/trace2.champsimtrace.xz
.xz
CPU 0 Bimodal branch predictor
BTB has LRU replacement policy
ITLB has LRU replacement policy
DTLB has LRU replacement policy
STLB has LRU replacement policy
L1I has LRU replacement policy
CPU 0 L1D Complex-Stride prefetcher
L1D has LRU replacement policy
L2C has LRU replacement policy
LLC has LRU replacement policy
500
125
0.25
Heartbeat CPU 0 instructions: 10000002 cycles: 3735010 heartbeat IPC: 2.67737 cumulative IPC: 2.67737 (Simulation time: 0 hr 0 min 20 sec) 
Heartbeat CPU 0 instructions: 20000001 cycles: 7471431 heartbeat IPC: 2.67636 cumulative IPC: 2.67686 (Simulation time: 0 hr 0 min 41 sec) 

Warmup complete CPU 0 instructions: 25000001 cycles: 9338534 (Simulation time: 0 hr 0 min 51 sec) 

Heartbeat CPU 0 instructions: 30000001 cycles: 26761951 heartbeat IPC: 0.518389 cumulative IPC: 0.28697 (Simulation time: 0 hr 1 min 7 sec) 
Heartbeat CPU 0 instructions: 40000002 cycles: 61421288 heartbeat IPC: 0.288523 cumulative IPC: 0.288003 (Simulation time: 0 hr 1 min 48 sec) 
Heartbeat CPU 0 instructions: 50000000 cycles: 95373092 heartbeat IPC: 0.294535 cumulative IPC: 0.290581 (Simulation time: 0 hr 2 min 32 sec) 
Finished CPU 0 instructions: 25000000 cycles: 86034580 cumulative IPC: 0.290581 (Simulation time: 0 hr 2 min 32 sec) 

ChampSim completed all CPUs

Region of Interest Statistics

CPU 0 cumulative IPC: 0.290581 instructions: 25000000 cycles: 86034580
ITLB TOTAL     ACCESS:    4830798  HIT:    4830798  MISS:          0  HIT %:        100  MISS %:          0   MPKI: 0
ITLB LOAD TRANSLATION ACCESS:    4830798  HIT:    4830798  MISS:          0  HIT %:        100  MISS %:          0   MPKI: 0
ITLB PREFETCH  REQUESTED:          0  ISSUED:          0  USEFUL:          0  USELESS:          0
ITLB USEFUL LOAD PREFETCHES:          0 PREFETCH ISSUED TO LOWER LEVEL:          0  ACCURACY: -nan
ITLB TIMELY PREFETCHES:          0 LATE PREFETCHES: 0 DROPPED PREFETCHES: 0
ITLB PREFETCHES SAME FILL-ORIGIN LEVEL: 0 DIFFERENT FILL-ORIGIN LEVEL: 0
ITLB AVERAGE MISS LATENCY: -nan cycles
ITLB RQ	ACCESS:    4916210	FORWARD:          0	MERGED:      85413	TO_CACHE:    4830797

DTLB TOTAL     ACCESS:    3869137  HIT:    3835122  MISS:      34015  HIT %:    99.1209  MISS %:   0.879137   MPKI: 1.3606
DTLB LOAD TRANSLATION ACCESS:    3869137  HIT:    3835122  MISS:      34015  HIT %:    99.1209  MISS %:   0.879137   MPKI: 1.3606
DTLB PREFETCH  REQUESTED:          0  ISSUED:          0  USEFUL:          0  USELESS:          0
DTLB USEFUL LOAD PREFETCHES:          0 PREFETCH ISSUED TO LOWER LEVEL:          0  ACCURACY: -nan
DTLB TIMELY PREFETCHES:          0 LATE PREFETCHES: 0 DROPPED PREFETCHES: 0
DTLB PREFETCHES SAME FILL-ORIGIN LEVEL: 0 DIFFERENT FILL-ORIGIN LEVEL: 0
DTLB AVERAGE MISS LATENCY: 106.327 cycles
DTLB RQ	ACCESS:    4553635	FORWARD:          0	MERGED:     684381	TO_CACHE:    3869254

STLB TOTAL     ACCESS:    3008074  HIT:    2975419  MISS:      32655  HIT %:    98.9144  MISS %:    1.08558   MPKI: 1.3062
STLB LOAD TRANSLATION ACCESS:      34015  HIT:       1361  MISS:      32654  HIT %:    4.00118  MISS %:    95.9988   MPKI: 1.30616
STLB TRANSLATION FROM L1D PREFETCHER ACCESS:    2974059  HIT:    2974058  MISS:          1  HIT %:        100  MISS %: 3.36241e-05   MPKI: 4e-05
STLB PREFETCH  REQUESTED:          0  ISSUED:          0  USEFUL:          1  USELESS:          0
STLB USEFUL LOAD PREFETCHES:          1 PREFETCH ISSUED TO LOWER LEVEL:          0  ACCURACY: inf
STLB TIMELY PREFETCHES:          1 LATE PREFETCHES: 0 DROPPED PREFETCHES: 0
STLB PREFETCHES SAME FILL-ORIGIN LEVEL: 0 DIFFERENT FILL-ORIGIN LEVEL: 0
STLB AVERAGE MISS LATENCY: 101.383 cycles
STLB RQ	ACCESS:    6939999	FORWARD:          0	MERGED:    3931925	TO_CACHE:    3008074

STLB Hit, L1D data hit: 0
STLB Hit, L2C data hit: 0
STLB Hit, LLC data hit: 0
STLB Hit, LLC data miss: 0
STLB STLB hints to L2: 0
L1D TOTAL     ACCESS:    8590296  HIT:    6809215  MISS:    1781081  HIT %:    79.2664  MISS %:    20.7336   MPKI: 71.2432
L1D LOAD      ACCESS:    4117170  HIT:    3516606  MISS:     600564  HIT %:    85.4132  MISS %:    14.5868   MPKI: 24.0226
L1D RFO       ACCESS:     333331  HIT:     332808  MISS:        523  HIT %:    99.8431  MISS %:   0.156901   MPKI: 0.02092
L1D PREFETCH  ACCESS:    4139795  HIT:    2959801  MISS:    1179994  HIT %:    71.4963  MISS %:    28.5037   MPKI: 47.1998
AGUS PREFETCH L1 MISS: 0
L1D PREFETCH  REQUESTED:   17118079  ISSUED:   17118079  USEFUL:    1149022  USELESS:      30996
L1D USEFUL LOAD PREFETCHES:    1149022 PREFETCH ISSUED TO LOWER LEVEL:    1707432  ACCURACY: 67.2953
L1D TIMELY PREFETCHES:    1149022 LATE PREFETCHES: 527380 DROPPED PREFETCHES: 0
L1D PREFETCHES SAME FILL-ORIGIN LEVEL: 1707432 DIFFERENT FILL-ORIGIN LEVEL: 0
L1D AVERAGE MISS LATENCY: 1.55643e+07 cycles
L1D RQ	ACCESS:    8972936	FORWARD:          0	MERGED:    4751082	TO_CACHE:    4220300
L1D WQ	ACCESS:     370377	FORWARD:       1569	MERGED:      37042	TO_CACHE:     333335
L1D PQ	ACCESS:   10212095	FORWARD:          0	MERGED:    3306096	TO_CACHE:    6905984

L1D UNIQUE REGIONS ACCESSED: 0
L1D REGIONS CONFLICTS: 0
L1D Cross Page Prefetch Requests: 0
L1D Same Page Prefetch Requests: 27617910
L1D ROI Sum of L1D PQ occupancy: 89582527
L1D PREFETCHES PUSHED FROM L2C: 0
L1I TOTAL     ACCESS:    4916210  HIT:    4916210  MISS:          0  HIT %:        100  MISS %:          0   MPKI: 0
L1I LOAD      ACCESS:    4916210  HIT:    4916210  MISS:          0  HIT %:        100  MISS %:          0   MPKI: 0
L1I PREFETCH  REQUESTED:          0  ISSUED:          0  USEFUL:          0  USELESS:          0
L1I USEFUL LOAD PREFETCHES:          0 PREFETCH ISSUED TO LOWER LEVEL:          0  ACCURACY: -nan
L1I TIMELY PREFETCHES:          0 LATE PREFETCHES: 0 DROPPED PREFETCHES: 0
L1I PREFETCHES SAME FILL-ORIGIN LEVEL: 0 DIFFERENT FILL-ORIGIN LEVEL: 0
L1I AVERAGE MISS LATENCY: -nan cycles
L1I RQ	ACCESS:    7365792	FORWARD:          0	MERGED:    2449582	TO_CACHE:    4916210

BTB TOTAL     ACCESS:    5953193  HIT:    5953095  MISS:         98  HIT %:    99.9984  MISS %: 0.00164618   MPKI: 0.00392
BTB BRANCH_DIRECT_JUMP	ACCESS:      85874  HIT:      85848  MISS:         26
BTB BRANCH_INDIRECT	ACCESS:          0  HIT:          0  MISS:          0
BTB BRANCH_CONDITIONAL	ACCESS:    5783213  HIT:    5783164  MISS:         49
BTB BRANCH_DIRECT_CALL	ACCESS:      42053  HIT:      42043  MISS:         10
BTB BRANCH_INDIRECT_CALL	ACCESS:          0  HIT:          0  MISS:          0
BTB BRANCH_RETURN	ACCESS:      42053  HIT:      42040  MISS:         13
BTB BRANCH_OTHER ACCESS:          0  HIT:          0  MISS:          0

L2C TOTAL     ACCESS:    1817131  HIT:      42420  MISS:    1774711  HIT %:    2.33445  MISS %:    97.6656   MPKI: 70.9884
L2C LOAD      ACCESS:      73184  HIT:       2546  MISS:      70638  HIT %:     3.4789  MISS %:    96.5211   MPKI: 2.82552
L2C DATA LOAD MPKI: 2.82552
L2C INSTRUCTION LOAD MPKI: 0
L2C RFO       ACCESS:        465  HIT:         74  MISS:        391  HIT %:     15.914  MISS %:     84.086   MPKI: 0.01564
L2C PREFETCH  ACCESS:    1707432  HIT:      11189  MISS:    1696243  HIT %:   0.655312  MISS %:    99.3447   MPKI: 67.8497
AGUS PREFETCH L1 MISS: 0
L2C DATA PREFETCH MPKI: 67.8497
L2C INSTRUCTION PREFETCH MPKI: 0
L2C WRITEBACK ACCESS:       2780  HIT:       2772  MISS:          8  HIT %:    99.7122  MISS %:    0.28777   MPKI: 0.00032
L2C LOAD TRANSLATION ACCESS:      33268  HIT:      25839  MISS:       7429  HIT %:    77.6692  MISS %:    22.3308   MPKI: 0.29716
L2C TRANSLATION FROM L1D PREFETCHER ACCESS:          2  HIT:          0  MISS:          2  HIT %:          0  MISS %:        100   MPKI: 8e-05
L2C PREFETCH  REQUESTED:          0  ISSUED:          0  USEFUL:       1994  USELESS:    1693588
L2C USEFUL LOAD PREFETCHES:       1994 PREFETCH ISSUED TO LOWER LEVEL:    1696243  ACCURACY: 0.117554
L2C TIMELY PREFETCHES:       1994 LATE PREFETCHES: 0 DROPPED PREFETCHES: 0
L2C PREFETCHES SAME FILL-ORIGIN LEVEL: 0 DIFFERENT FILL-ORIGIN LEVEL: 0
L2C AVERAGE MISS LATENCY: 106.941 cycles
L2C RQ	ACCESS:     106919	FORWARD:          0	MERGED:          0	TO_CACHE:     106919
L2C WQ	ACCESS:       2780	FORWARD:          0	MERGED:          0	TO_CACHE:       2780
L2C PQ	ACCESS:    1707432	FORWARD:          0	MERGED:          0	TO_CACHE:    1707432

L2C Instructions Evicting Data 0
L2C Translations Evicting Data 7404
L2C Data Evicting Data 1759882
L2C Instructions Evicting Instructions 0
L2C Translations Evicting Instructions 0
L2C Data Evicting Instructions 0
L2C Instructions Evicting Translations 0
L2C Translations Evicting Translations 27
L2C Data Evicting Translations 7390
L2C Dense regions hint from L2: 0
PSCL5 TOTAL     ACCESS:      32655  HIT:      32655  MISS:          0  HIT %:        100  MISS %:          0   MPKI: 0
PSCL5 LOAD TRANSLATION ACCESS:      32654  HIT:      32654  MISS:          0  HIT %:        100  MISS %:          0   MPKI: 0
PSCL5 TRANSLATION FROM L1D PREFETCHER ACCESS:          1  HIT:          1  MISS:          0  HIT %:        100  MISS %:          0   MPKI: 0
PSCL5 PREFETCH  REQUESTED:          0  ISSUED:          0  USEFUL:          0  USELESS:          0
PSCL5 USEFUL LOAD PREFETCHES:          0 PREFETCH ISSUED TO LOWER LEVEL:          0  ACCURACY: -nan
PSCL5 TIMELY PREFETCHES:          0 LATE PREFETCHES: 0 DROPPED PREFETCHES: 0
PSCL5 PREFETCHES SAME FILL-ORIGIN LEVEL: 0 DIFFERENT FILL-ORIGIN LEVEL: 0

PSCL4 TOTAL     ACCESS:      32655  HIT:      32655  MISS:          0  HIT %:        100  MISS %:          0   MPKI: 0
PSCL4 LOAD TRANSLATION ACCESS:      32654  HIT:      32654  MISS:          0  HIT %:        100  MISS %:          0   MPKI: 0
PSCL4 TRANSLATION FROM L1D PREFETCHER ACCESS:          1  HIT:          1  MISS:          0  HIT %:        100  MISS %:          0   MPKI: 0
PSCL4 PREFETCH  REQUESTED:          0  ISSUED:          0  USEFUL:          0  USELESS:          0
PSCL4 USEFUL LOAD PREFETCHES:          0 PREFETCH ISSUED TO LOWER LEVEL:          0  ACCURACY: -nan
PSCL4 TIMELY PREFETCHES:          0 LATE PREFETCHES: 0 DROPPED PREFETCHES: 0
PSCL4 PREFETCHES SAME FILL-ORIGIN LEVEL: 0 DIFFERENT FILL-ORIGIN LEVEL: 0

PSCL3 TOTAL     ACCESS:      32655  HIT:      32655  MISS:          0  HIT %:        100  MISS %:          0   MPKI: 0
PSCL3 LOAD TRANSLATION ACCESS:      32654  HIT:      32654  MISS:          0  HIT %:        100  MISS %:          0   MPKI: 0
PSCL3 TRANSLATION FROM L1D PREFETCHER ACCESS:          1  HIT:          1  MISS:          0  HIT %:        100  MISS %:          0   MPKI: 0
PSCL3 PREFETCH  REQUESTED:          0  ISSUED:          0  USEFUL:          0  USELESS:          0
PSCL3 USEFUL LOAD PREFETCHES:          0 PREFETCH ISSUED TO LOWER LEVEL:          0  ACCURACY: -nan
PSCL3 TIMELY PREFETCHES:          0 LATE PREFETCHES: 0 DROPPED PREFETCHES: 0
PSCL3 PREFETCHES SAME FILL-ORIGIN LEVEL: 0 DIFFERENT FILL-ORIGIN LEVEL: 0

PSCL2 TOTAL     ACCESS:      32655  HIT:      31942  MISS:        713  HIT %:    97.8166  MISS %:    2.18343   MPKI: 0.02852
PSCL2 LOAD TRANSLATION ACCESS:      32655  HIT:      31942  MISS:        713  HIT %:    97.8166  MISS %:    2.18343   MPKI: 0.02852
PSCL2 PREFETCH  REQUESTED:          0  ISSUED:          0  USEFUL:          0  USELESS:          0
PSCL2 USEFUL LOAD PREFETCHES:          0 PREFETCH ISSUED TO LOWER LEVEL:          0  ACCURACY: -nan
PSCL2 TIMELY PREFETCHES:          0 LATE PREFETCHES: 0 DROPPED PREFETCHES: 0
PSCL2 PREFETCHES SAME FILL-ORIGIN LEVEL: 0 DIFFERENT FILL-ORIGIN LEVEL: 0

LLC TOTAL     ACCESS:    1777472  HIT:       4509  MISS:    1772963  HIT %:   0.253675  MISS %:    99.7463   MPKI: 70.9185
LLC LOAD      ACCESS:      70638  HIT:        129  MISS:      70509  HIT %:   0.182621  MISS %:    99.8174   MPKI: 2.82036
LLC RFO       ACCESS:        391  HIT:          0  MISS:        391  HIT %:          0  MISS %:        100   MPKI: 0.01564
LLC PREFETCH  ACCESS:    1696243  HIT:       1302  MISS:    1694941  HIT %:  0.0767579  MISS %:    99.9232   MPKI: 67.7976
AGUS PREFETCH L1 MISS: 0
LLC WRITEBACK ACCESS:       2769  HIT:       2761  MISS:          8  HIT %:    99.7111  MISS %:   0.288913   MPKI: 0.00032
LLC LOAD TRANSLATION ACCESS:       7429  HIT:        317  MISS:       7112  HIT %:    4.26706  MISS %:    95.7329   MPKI: 0.28448
LLC TRANSLATION FROM L1D PREFETCHER ACCESS:          2  HIT:          0  MISS:          2  HIT %:          0  MISS %:        100   MPKI: 8e-05
LLC PREFETCH  REQUESTED:          0  ISSUED:          0  USEFUL:         55  USELESS:    1692157
LLC USEFUL LOAD PREFETCHES:         55 PREFETCH ISSUED TO LOWER LEVEL:    1694941  ACCURACY: 0.00324495
LLC TIMELY PREFETCHES:         55 LATE PREFETCHES: 0 DROPPED PREFETCHES: 0
LLC PREFETCHES SAME FILL-ORIGIN LEVEL: 0 DIFFERENT FILL-ORIGIN LEVEL: 0
LLC AVERAGE MISS LATENCY: 76.96 cycles
LLC RQ	ACCESS:      78460	FORWARD:          0	MERGED:          0	TO_CACHE:      78460
LLC WQ	ACCESS:       2769	FORWARD:          0	MERGED:          0	TO_CACHE:       2769
LLC PQ	ACCESS:    1696243	FORWARD:          0	MERGED:          0	TO_CACHE:    1696243

LLC Dense regions hint to LLC: 0

RAW hits: 4011
Loads Generated: 8976947
Loads sent to L1D: 8972936
Stores Generated: 370377
Stores sent to L1D: 370377
Major fault: 0 Minor fault: 48857
Allocated PAGES: 48857
CPU 0 L1D complex stride prefetcher final stats
Degree: 3

DRAM Statistics
 CHANNEL 0
 RQ ROW_BUFFER_HIT:    1658015  ROW_BUFFER_MISS:     114940
 DBUS_CONGESTED:        372
 WQ ROW_BUFFER_HIT:        784  ROW_BUFFER_MISS:       1981  FULL:          0

 AVG_CONGESTED_CYCLE: 4
 All warmup complete: 2
Channel 0 Bank busy for read cycles: 0
Channel 0 Bank busy for write cycles: 0
Channel 0
Rank 0
0banks busy for read cycles: 29971071
0banks busy for write cycles: 1367
1banks busy for read cycles: 26822962
1banks busy for write cycles: 382682
2banks busy for read cycles: 17104334
2banks busy for write cycles: 160563
3banks busy for read cycles: 7438293
3banks busy for write cycles: 69626
4banks busy for read cycles: 3474482
4banks busy for write cycles: 30443
5banks busy for read cycles: 472250
5banks busy for write cycles: 13011
6banks busy for read cycles: 74215
6banks busy for write cycles: 5117
7banks busy for read cycles: 8863
7banks busy for write cycles: 790
8banks busy for read cycles: 3913
8banks busy for write cycles: 599

CPU 0 Branch Prediction Accuracy: 99.1323% MPKI: 3.09396 Average ROB Occupancy at Mispredict: 114.821
Branch types
NOT_BRANCH: 16085563 64.3423%
BRANCH_DIRECT_JUMP: 85874 0.343496%
BRANCH_INDIRECT: 0 0%
BRANCH_CONDITIONAL: 8744101 34.9764%
BRANCH_DIRECT_CALL: 42053 0.168212%
BRANCH_INDIRECT_CALL: 0 0%
BRANCH_RETURN: 42053 0.168212%
BRANCH_OTHER: 0 0%

DRAM PAGES: 1048576
Allocated PAGES: 48857
