
*** ChampSim Multicore Out-of-Order Simulator ***

Warmup Instructions: 25000000
Simulation Instructions: 25000000
Number of CPUs: 1
LLC sets: 2048
LLC ways: 16
Off-chip DRAM Size: 4096 MB Channels: 1 Width: 64-bit Data Rate: 6400 MT/s
CPU 0 runs ./traces/trace1.champsimtrace.xz
.xz
CPU 0 Bimodal branch predictor
BTB has LRU replacement policy
ITLB has LRU replacement policy
DTLB has LRU replacement policy
CPU 0 STLB arbitrary stride prefetcher
STLB has LRU replacement policy
L1I has LRU replacement policy
L1D has LRU replacement policy
L2C has LRU replacement policy
LLC has LRU replacement policy
Heartbeat CPU 0 instructions: 10000003 cycles: 2826874 heartbeat IPC: 3.53748 cumulative IPC: 3.53748 (Simulation time: 0 hr 0 min 17 sec) 
Heartbeat CPU 0 instructions: 20000003 cycles: 5639214 heartbeat IPC: 3.55576 cumulative IPC: 3.54659 (Simulation time: 0 hr 0 min 33 sec) 

Warmup complete CPU 0 instructions: 25000004 cycles: 7051078 (Simulation time: 0 hr 0 min 42 sec) 

Heartbeat CPU 0 instructions: 30000002 cycles: 23059812 heartbeat IPC: 0.574033 cumulative IPC: 0.312329 (Simulation time: 0 hr 1 min 0 sec) 
Heartbeat CPU 0 instructions: 40000001 cycles: 57079726 heartbeat IPC: 0.293945 cumulative IPC: 0.299828 (Simulation time: 0 hr 1 min 38 sec) 
Heartbeat CPU 0 instructions: 50000003 cycles: 89842415 heartbeat IPC: 0.305225 cumulative IPC: 0.301964 (Simulation time: 0 hr 2 min 14 sec) 
Finished CPU 0 instructions: 25000003 cycles: 82791338 cumulative IPC: 0.301964 (Simulation time: 0 hr 2 min 14 sec) 

ChampSim completed all CPUs

Region of Interest Statistics

CPU 0 cumulative IPC: 0.301964 instructions: 25000003 cycles: 82791338
ITLB TOTAL     ACCESS:    4410972  HIT:    4410972  MISS:          0  HIT %:        100  MISS %:          0   MPKI: 0
ITLB LOAD TRANSLATION ACCESS:    4410972  HIT:    4410972  MISS:          0  HIT %:        100  MISS %:          0   MPKI: 0
ITLB PREFETCH  REQUESTED:          0  ISSUED:          0  USEFUL:          0  USELESS:          0
ITLB USEFUL LOAD PREFETCHES:          0 PREFETCH ISSUED TO LOWER LEVEL:          0  ACCURACY: -nan
ITLB TIMELY PREFETCHES:          0 LATE PREFETCHES: 0 DROPPED PREFETCHES: 0
ITLB PREFETCHES SAME FILL-ORIGIN LEVEL: 0 DIFFERENT FILL-ORIGIN LEVEL: 0
ITLB AVERAGE MISS LATENCY: -nan cycles
ITLB RQ	ACCESS:    4769587	FORWARD:          0	MERGED:     358616	TO_CACHE:    4410971

DTLB TOTAL     ACCESS:    3695752  HIT:    3032775  MISS:     662977  HIT %:    82.0611  MISS %:    17.9389   MPKI: 26.5191
DTLB LOAD TRANSLATION ACCESS:    3695752  HIT:    3032775  MISS:     662977  HIT %:    82.0611  MISS %:    17.9389   MPKI: 26.5191
DTLB PREFETCH  REQUESTED:          0  ISSUED:          0  USEFUL:          0  USELESS:          0
DTLB USEFUL LOAD PREFETCHES:          0 PREFETCH ISSUED TO LOWER LEVEL:          0  ACCURACY: -nan
DTLB TIMELY PREFETCHES:          0 LATE PREFETCHES: 0 DROPPED PREFETCHES: 0
DTLB PREFETCHES SAME FILL-ORIGIN LEVEL: 0 DIFFERENT FILL-ORIGIN LEVEL: 0
DTLB AVERAGE MISS LATENCY: 40.5719 cycles
DTLB RQ	ACCESS:    4296419	FORWARD:          0	MERGED:     590459	TO_CACHE:    3705960

STLB TOTAL     ACCESS:    1873918  HIT:     574148  MISS:    1299770  HIT %:    30.6389  MISS %:    69.3611   MPKI: 51.9908
STLB LOAD TRANSLATION ACCESS:     662977  HIT:     120829  MISS:     542148  HIT %:    18.2252  MISS %:    81.7748   MPKI: 21.6859
STLB PREFETCH TRANSLATION ACCESS:    1210941  HIT:     453319  MISS:     757622  HIT %:    37.4353  MISS %:    62.5647   MPKI: 30.3049
STLB PREFETCH  REQUESTED:    2699250  ISSUED:    1358127  USEFUL:      31747  USELESS:     726100
STLB USEFUL LOAD PREFETCHES:      31747 PREFETCH ISSUED TO LOWER LEVEL:     825071  ACCURACY: 3.84779
STLB TIMELY PREFETCHES:      31747 LATE PREFETCHES: 8791 DROPPED PREFETCHES: 58661
STLB PREFETCHES SAME FILL-ORIGIN LEVEL: 825071 DIFFERENT FILL-ORIGIN LEVEL: 0
STLB AVERAGE MISS LATENCY: 103.255 cycles
STLB RQ	ACCESS:     662978	FORWARD:          0	MERGED:          0	TO_CACHE:     662978
STLB PQ	ACCESS:    1358127	FORWARD:          0	MERGED:      22284	TO_CACHE:    1335843

STLB Hit, L1D data hit: 0
STLB Hit, L2C data hit: 0
STLB Hit, LLC data hit: 0
STLB Hit, LLC data miss: 0
STLB STLB hints to L2: 0
L1D TOTAL     ACCESS:    4281986  HIT:    3076672  MISS:    1205314  HIT %:    71.8515  MISS %:    28.1485   MPKI: 48.2126
L1D LOAD      ACCESS:    3173321  HIT:    2037371  MISS:    1135950  HIT %:    64.2031  MISS %:    35.7969   MPKI: 45.438
L1D RFO       ACCESS:    1108665  HIT:    1039301  MISS:      69364  HIT %:    93.7435  MISS %:    6.25653   MPKI: 2.77456
L1D PREFETCH  REQUESTED:          0  ISSUED:          0  USEFUL:          0  USELESS:          0
L1D USEFUL LOAD PREFETCHES:          0 PREFETCH ISSUED TO LOWER LEVEL:          0  ACCURACY: -nan
L1D TIMELY PREFETCHES:          0 LATE PREFETCHES: 0 DROPPED PREFETCHES: 0
L1D PREFETCHES SAME FILL-ORIGIN LEVEL: 0 DIFFERENT FILL-ORIGIN LEVEL: 0
L1D AVERAGE MISS LATENCY: 125.329 cycles
L1D RQ	ACCESS:    6168174	FORWARD:          0	MERGED:    2909258	TO_CACHE:    3187752
L1D WQ	ACCESS:    1108674	FORWARD:      71164	MERGED:          7	TO_CACHE:    1108667

L1D UNIQUE REGIONS ACCESSED: 0
L1D REGIONS CONFLICTS: 0
L1D Cross Page Prefetch Requests: 0
L1D Same Page Prefetch Requests: 0
L1D ROI Sum of L1D PQ occupancy: 0
L1D PREFETCHES PUSHED FROM L2C: 0
L1I TOTAL     ACCESS:    4769587  HIT:    4769587  MISS:          0  HIT %:        100  MISS %:          0   MPKI: 0
L1I LOAD      ACCESS:    4769587  HIT:    4769587  MISS:          0  HIT %:        100  MISS %:          0   MPKI: 0
L1I PREFETCH  REQUESTED:          0  ISSUED:          0  USEFUL:          0  USELESS:          0
L1I USEFUL LOAD PREFETCHES:          0 PREFETCH ISSUED TO LOWER LEVEL:          0  ACCURACY: -nan
L1I TIMELY PREFETCHES:          0 LATE PREFETCHES: 0 DROPPED PREFETCHES: 0
L1I PREFETCHES SAME FILL-ORIGIN LEVEL: 0 DIFFERENT FILL-ORIGIN LEVEL: 0
L1I AVERAGE MISS LATENCY: -nan cycles
L1I RQ	ACCESS:    7015863	FORWARD:          0	MERGED:    2246276	TO_CACHE:    4769587

BTB TOTAL     ACCESS:    3283963  HIT:    3283955  MISS:          8  HIT %:    99.9998  MISS %: 0.000243608   MPKI: 0.00032
BTB BRANCH_DIRECT_JUMP	ACCESS:     568310  HIT:     568308  MISS:          2
BTB BRANCH_INDIRECT	ACCESS:          0  HIT:          0  MISS:          0
BTB BRANCH_CONDITIONAL	ACCESS:    1606985  HIT:    1606981  MISS:          4
BTB BRANCH_DIRECT_CALL	ACCESS:     554334  HIT:     554333  MISS:          1
BTB BRANCH_INDIRECT_CALL	ACCESS:          0  HIT:          0  MISS:          0
BTB BRANCH_RETURN	ACCESS:     554334  HIT:     554333  MISS:          1
BTB BRANCH_OTHER ACCESS:          0  HIT:          0  MISS:          0

L2C TOTAL     ACCESS:    3236090  HIT:    2086719  MISS:    1149371  HIT %:    64.4827  MISS %:    35.5173   MPKI: 45.9748
L2C LOAD      ACCESS:    1135949  HIT:     400060  MISS:     735889  HIT %:    35.2181  MISS %:    64.7819   MPKI: 29.4356
L2C DATA LOAD MPKI: 29.4356
L2C INSTRUCTION LOAD MPKI: 0
L2C RFO       ACCESS:      69364  HIT:      34560  MISS:      34804  HIT %:    49.8241  MISS %:    50.1759   MPKI: 1.39216
L2C WRITEBACK ACCESS:     554350  HIT:     554350  MISS:          0  HIT %:        100  MISS %:          0   MPKI: 0
L2C LOAD TRANSLATION ACCESS:     544481  HIT:     456536  MISS:      87945  HIT %:    83.8479  MISS %:    16.1521   MPKI: 3.5178
L2C PREFETCH TRANSLATION ACCESS:     931946  HIT:     641213  MISS:     290733  HIT %:    68.8037  MISS %:    31.1963   MPKI: 11.6293
L2C PREFETCH  REQUESTED:          0  ISSUED:          0  USEFUL:     236896  USELESS:      53737
L2C USEFUL LOAD PREFETCHES:     236896 PREFETCH ISSUED TO LOWER LEVEL:          0  ACCURACY: inf
L2C TIMELY PREFETCHES:     236896 LATE PREFETCHES: 0 DROPPED PREFETCHES: 0
L2C PREFETCHES SAME FILL-ORIGIN LEVEL: 0 DIFFERENT FILL-ORIGIN LEVEL: 0
L2C AVERAGE MISS LATENCY: 127.008 cycles
L2C RQ	ACCESS:    2681743	FORWARD:          0	MERGED:          0	TO_CACHE:    2681743
L2C WQ	ACCESS:     554350	FORWARD:          0	MERGED:          0	TO_CACHE:     554350

L2C Instructions Evicting Data 0
L2C Translations Evicting Data 215920
L2C Data Evicting Data 554565
L2C Instructions Evicting Instructions 0
L2C Translations Evicting Instructions 0
L2C Data Evicting Instructions 0
L2C Instructions Evicting Translations 0
L2C Translations Evicting Translations 162758
L2C Data Evicting Translations 216128
L2C Dense regions hint from L2: 0
PSCL5 TOTAL     ACCESS:    1358432  HIT:    1358432  MISS:          0  HIT %:        100  MISS %:          0   MPKI: 0
PSCL5 LOAD TRANSLATION ACCESS:     533358  HIT:     533358  MISS:          0  HIT %:        100  MISS %:          0   MPKI: 0
PSCL5 PREFETCH TRANSLATION ACCESS:     825074  HIT:     825074  MISS:          0  HIT %:        100  MISS %:          0   MPKI: 0
PSCL5 PREFETCH  REQUESTED:          0  ISSUED:          0  USEFUL:          0  USELESS:          0
PSCL5 USEFUL LOAD PREFETCHES:          0 PREFETCH ISSUED TO LOWER LEVEL:          0  ACCURACY: -nan
PSCL5 TIMELY PREFETCHES:          0 LATE PREFETCHES: 0 DROPPED PREFETCHES: 0
PSCL5 PREFETCHES SAME FILL-ORIGIN LEVEL: 0 DIFFERENT FILL-ORIGIN LEVEL: 0

PSCL4 TOTAL     ACCESS:    1358432  HIT:    1358432  MISS:          0  HIT %:        100  MISS %:          0   MPKI: 0
PSCL4 LOAD TRANSLATION ACCESS:     533358  HIT:     533358  MISS:          0  HIT %:        100  MISS %:          0   MPKI: 0
PSCL4 PREFETCH TRANSLATION ACCESS:     825074  HIT:     825074  MISS:          0  HIT %:        100  MISS %:          0   MPKI: 0
PSCL4 PREFETCH  REQUESTED:          0  ISSUED:          0  USEFUL:          0  USELESS:          0
PSCL4 USEFUL LOAD PREFETCHES:          0 PREFETCH ISSUED TO LOWER LEVEL:          0  ACCURACY: -nan
PSCL4 TIMELY PREFETCHES:          0 LATE PREFETCHES: 0 DROPPED PREFETCHES: 0
PSCL4 PREFETCHES SAME FILL-ORIGIN LEVEL: 0 DIFFERENT FILL-ORIGIN LEVEL: 0

PSCL3 TOTAL     ACCESS:    1356413  HIT:    1356413  MISS:          0  HIT %:        100  MISS %:          0   MPKI: 0
PSCL3 LOAD TRANSLATION ACCESS:     533358  HIT:     533358  MISS:          0  HIT %:        100  MISS %:          0   MPKI: 0
PSCL3 PREFETCH TRANSLATION ACCESS:     823055  HIT:     823055  MISS:          0  HIT %:        100  MISS %:          0   MPKI: 0
PSCL3 PREFETCH  REQUESTED:          0  ISSUED:          0  USEFUL:          0  USELESS:          0
PSCL3 USEFUL LOAD PREFETCHES:          0 PREFETCH ISSUED TO LOWER LEVEL:          0  ACCURACY: -nan
PSCL3 TIMELY PREFETCHES:          0 LATE PREFETCHES: 0 DROPPED PREFETCHES: 0
PSCL3 PREFETCHES SAME FILL-ORIGIN LEVEL: 0 DIFFERENT FILL-ORIGIN LEVEL: 0

PSCL2 TOTAL     ACCESS:    1314042  HIT:    1232452  MISS:      81590  HIT %:    93.7909  MISS %:    6.20909   MPKI: 3.2636
PSCL2 LOAD TRANSLATION ACCESS:     603825  HIT:     522235  MISS:      81590  HIT %:    86.4878  MISS %:    13.5122   MPKI: 3.2636
PSCL2 PREFETCH TRANSLATION ACCESS:     710217  HIT:     710217  MISS:          0  HIT %:        100  MISS %:          0   MPKI: 0
PSCL2 PREFETCH  REQUESTED:          0  ISSUED:          0  USEFUL:          0  USELESS:          0
PSCL2 USEFUL LOAD PREFETCHES:          0 PREFETCH ISSUED TO LOWER LEVEL:          0  ACCURACY: -nan
PSCL2 TIMELY PREFETCHES:          0 LATE PREFETCHES: 0 DROPPED PREFETCHES: 0
PSCL2 PREFETCHES SAME FILL-ORIGIN LEVEL: 0 DIFFERENT FILL-ORIGIN LEVEL: 0

LLC TOTAL     ACCESS:    1704040  HIT:    1051464  MISS:     652576  HIT %:    61.7042  MISS %:    38.2958   MPKI: 26.103
LLC LOAD      ACCESS:     735889  HIT:      94370  MISS:     641519  HIT %:    12.8239  MISS %:    87.1761   MPKI: 25.6608
LLC RFO       ACCESS:      34804  HIT:      34800  MISS:          4  HIT %:    99.9885  MISS %:  0.0114929   MPKI: 0.00016
LLC WRITEBACK ACCESS:     554669  HIT:     554669  MISS:          0  HIT %:        100  MISS %:          0   MPKI: 0
LLC LOAD TRANSLATION ACCESS:      87945  HIT:      85505  MISS:       2440  HIT %:    97.2255  MISS %:    2.77446   MPKI: 0.0976
LLC PREFETCH TRANSLATION ACCESS:     290733  HIT:     282120  MISS:       8613  HIT %:    97.0375  MISS %:    2.96251   MPKI: 0.34452
LLC PREFETCH  REQUESTED:          0  ISSUED:          0  USEFUL:       4967  USELESS:       3590
LLC USEFUL LOAD PREFETCHES:       4967 PREFETCH ISSUED TO LOWER LEVEL:          0  ACCURACY: inf
LLC TIMELY PREFETCHES:       4967 LATE PREFETCHES: 0 DROPPED PREFETCHES: 0
LLC PREFETCHES SAME FILL-ORIGIN LEVEL: 0 DIFFERENT FILL-ORIGIN LEVEL: 0
LLC AVERAGE MISS LATENCY: 170.645 cycles
LLC RQ	ACCESS:    1149373	FORWARD:          0	MERGED:          0	TO_CACHE:    1149373
LLC WQ	ACCESS:     554668	FORWARD:          0	MERGED:          0	TO_CACHE:     554668

LLC Dense regions hint to LLC: 0

RAW hits: 482359
Loads Generated: 6650536
Loads sent to L1D: 6168174
Stores Generated: 1108672
Stores sent to L1D: 1108674
Major fault: 0 Minor fault: 23116
Allocated PAGES: 23116
CPU 0 STLB arbitrary stride prefetcher final stats
Degree: 15

DRAM Statistics
 CHANNEL 0
 RQ ROW_BUFFER_HIT:        969  ROW_BUFFER_MISS:     651607
 DBUS_CONGESTED:          2
 WQ ROW_BUFFER_HIT:     243055  ROW_BUFFER_MISS:     311440  FULL:          0

 AVG_CONGESTED_CYCLE: 5
 All warmup complete: 2
Channel 0 Bank busy for read cycles: 0
Channel 0 Bank busy for write cycles: 0
Channel 0
Rank 0
0banks busy for read cycles: 1751840
0banks busy for write cycles: 44866
1banks busy for read cycles: 17087681
1banks busy for write cycles: 3584816
2banks busy for read cycles: 13037187
2banks busy for write cycles: 5946650
3banks busy for read cycles: 12309838
3banks busy for write cycles: 9406611
4banks busy for read cycles: 4338925
4banks busy for write cycles: 8614483
5banks busy for read cycles: 68385
5banks busy for write cycles: 3664346
6banks busy for read cycles: 211
6banks busy for write cycles: 1509996
7banks busy for read cycles: 0
7banks busy for write cycles: 806630
8banks busy for read cycles: 0
8banks busy for write cycles: 618874

CPU 0 Branch Prediction Accuracy: 99.9685% MPKI: 0.04912 Average ROB Occupancy at Mispredict: 155.395
Branch types
NOT_BRANCH: 21105636 84.4225%
BRANCH_DIRECT_JUMP: 568310 2.27324%
BRANCH_INDIRECT: 0 0%
BRANCH_CONDITIONAL: 2217336 8.86934%
BRANCH_DIRECT_CALL: 554334 2.21734%
BRANCH_INDIRECT_CALL: 0 0%
BRANCH_RETURN: 554334 2.21734%
BRANCH_OTHER: 0 0%

DRAM PAGES: 1048576
Allocated PAGES: 23116
