
*** ChampSim Multicore Out-of-Order Simulator ***

Warmup Instructions: 25000000
Simulation Instructions: 25000000
Number of CPUs: 1
LLC sets: 2048
LLC ways: 16
Off-chip DRAM Size: 4096 MB Channels: 1 Width: 64-bit Data Rate: 6400 MT/s
CPU 0 runs ./traces/trace2.champsimtrace.xz
.xz
CPU 0 Bimodal branch predictor
BTB has LRU replacement policy
ITLB has LRU replacement policy
DTLB has LRU replacement policy
STLB has LRU replacement policy
L1I has LRU replacement policy
CPU 0 L1D Complex-Stride prefetcher
L1D has LRU replacement policy
L2C has LRU replacement policy
LLC has LRU replacement policy
500
139
0.278
Heartbeat CPU 0 instructions: 10000002 cycles: 3736102 heartbeat IPC: 2.67659 cumulative IPC: 2.67659 (Simulation time: 0 hr 0 min 22 sec) 
Heartbeat CPU 0 instructions: 20000001 cycles: 7473873 heartbeat IPC: 2.67539 cumulative IPC: 2.67599 (Simulation time: 0 hr 0 min 50 sec) 

Warmup complete CPU 0 instructions: 25000001 cycles: 9341437 (Simulation time: 0 hr 1 min 11 sec) 

Heartbeat CPU 0 instructions: 30000001 cycles: 22652568 heartbeat IPC: 0.658818 cumulative IPC: 0.375625 (Simulation time: 0 hr 1 min 40 sec) 
Heartbeat CPU 0 instructions: 40000002 cycles: 49164733 heartbeat IPC: 0.377185 cumulative IPC: 0.376664 (Simulation time: 0 hr 2 min 19 sec) 
Heartbeat CPU 0 instructions: 50000000 cycles: 75316621 heartbeat IPC: 0.382381 cumulative IPC: 0.37893 (Simulation time: 0 hr 2 min 56 sec) 
Finished CPU 0 instructions: 25000000 cycles: 65975206 cumulative IPC: 0.37893 (Simulation time: 0 hr 2 min 56 sec) 

ChampSim completed all CPUs

Region of Interest Statistics

CPU 0 cumulative IPC: 0.37893 instructions: 25000000 cycles: 65975206
ITLB TOTAL     ACCESS:    4510445  HIT:    4510445  MISS:          0  HIT %:        100  MISS %:          0   MPKI: 0
ITLB LOAD TRANSLATION ACCESS:    4510445  HIT:    4510445  MISS:          0  HIT %:        100  MISS %:          0   MPKI: 0
ITLB PREFETCH  REQUESTED:          0  ISSUED:          0  USEFUL:          0  USELESS:          0
ITLB USEFUL LOAD PREFETCHES:          0 PREFETCH ISSUED TO LOWER LEVEL:          0  ACCURACY: -nan
ITLB TIMELY PREFETCHES:          0 LATE PREFETCHES: 0 DROPPED PREFETCHES: 0
ITLB PREFETCHES SAME FILL-ORIGIN LEVEL: 0 DIFFERENT FILL-ORIGIN LEVEL: 0
ITLB AVERAGE MISS LATENCY: -nan cycles
ITLB RQ	ACCESS:    4595857	FORWARD:          0	MERGED:      85413	TO_CACHE:    4510444

DTLB TOTAL     ACCESS:    3868689  HIT:    3834674  MISS:      34015  HIT %:    99.1208  MISS %:   0.879238   MPKI: 1.3606
DTLB LOAD TRANSLATION ACCESS:    3868689  HIT:    3834674  MISS:      34015  HIT %:    99.1208  MISS %:   0.879238   MPKI: 1.3606
DTLB PREFETCH  REQUESTED:          0  ISSUED:          0  USEFUL:          0  USELESS:          0
DTLB USEFUL LOAD PREFETCHES:          0 PREFETCH ISSUED TO LOWER LEVEL:          0  ACCURACY: -nan
DTLB TIMELY PREFETCHES:          0 LATE PREFETCHES: 0 DROPPED PREFETCHES: 0
DTLB PREFETCHES SAME FILL-ORIGIN LEVEL: 0 DIFFERENT FILL-ORIGIN LEVEL: 0
DTLB AVERAGE MISS LATENCY: 106.689 cycles
DTLB RQ	ACCESS:    4553518	FORWARD:          0	MERGED:     684703	TO_CACHE:    3868815

STLB TOTAL     ACCESS:    2991167  HIT:    2958512  MISS:      32655  HIT %:    98.9083  MISS %:    1.09171   MPKI: 1.3062
STLB LOAD TRANSLATION ACCESS:      34015  HIT:       1361  MISS:      32654  HIT %:    4.00118  MISS %:    95.9988   MPKI: 1.30616
STLB TRANSLATION FROM L1D PREFETCHER ACCESS:    2957152  HIT:    2957151  MISS:          1  HIT %:        100  MISS %: 3.38163e-05   MPKI: 4e-05
STLB PREFETCH  REQUESTED:          0  ISSUED:          0  USEFUL:          1  USELESS:          0
STLB USEFUL LOAD PREFETCHES:          1 PREFETCH ISSUED TO LOWER LEVEL:          0  ACCURACY: inf
STLB TIMELY PREFETCHES:          1 LATE PREFETCHES: 0 DROPPED PREFETCHES: 0
STLB PREFETCHES SAME FILL-ORIGIN LEVEL: 0 DIFFERENT FILL-ORIGIN LEVEL: 0
STLB AVERAGE MISS LATENCY: 101.758 cycles
STLB RQ	ACCESS:   19922127	FORWARD:          0	MERGED:   16930960	TO_CACHE:    2991167

STLB Hit, L1D data hit: 0
STLB Hit, L2C data hit: 0
STLB Hit, LLC data hit: 0
STLB Hit, LLC data miss: 0
STLB STLB hints to L2: 0
L1D TOTAL     ACCESS:   22345971  HIT:   20416636  MISS:    1929335  HIT %:    91.3661  MISS %:    8.63393   MPKI: 77.1734
L1D LOAD      ACCESS:    4215533  HIT:    4145050  MISS:      70483  HIT %:     98.328  MISS %:    1.67198   MPKI: 2.81932
L1D RFO       ACCESS:     333329  HIT:     332816  MISS:        513  HIT %:    99.8461  MISS %:   0.153902   MPKI: 0.02052
L1D PREFETCH  ACCESS:   17797109  HIT:   15938770  MISS:    1858339  HIT %:    89.5582  MISS %:    10.4418   MPKI: 74.3336
AGUS PREFETCH L1 MISS: 0
L1D PREFETCH  REQUESTED:   66683928  ISSUED:   63926789  USEFUL:    1689024  USELESS:     169342
L1D USEFUL LOAD PREFETCHES:    1689024 PREFETCH ISSUED TO LOWER LEVEL:    1862874  ACCURACY: 90.6676
L1D TIMELY PREFETCHES:    1689024 LATE PREFETCHES: 4498 DROPPED PREFETCHES: 0
L1D PREFETCHES SAME FILL-ORIGIN LEVEL: 1862874 DIFFERENT FILL-ORIGIN LEVEL: 0
L1D AVERAGE MISS LATENCY: 100267 cycles
L1D RQ	ACCESS:    8972940	FORWARD:          0	MERGED:    4751198	TO_CACHE:    4220185
L1D WQ	ACCESS:     370377	FORWARD:       1617	MERGED:      37044	TO_CACHE:     333333
L1D PQ	ACCESS:   44038677	FORWARD:          0	MERGED:   24150505	TO_CACHE:   19888112

L1D UNIQUE REGIONS ACCESSED: 0
L1D REGIONS CONFLICTS: 0
L1D Cross Page Prefetch Requests: 0
L1D Same Page Prefetch Requests: 82101878
L1D ROI Sum of L1D PQ occupancy: 312142989
L1D PREFETCHES PUSHED FROM L2C: 0
L1I TOTAL     ACCESS:    4595857  HIT:    4595857  MISS:          0  HIT %:        100  MISS %:          0   MPKI: 0
L1I LOAD      ACCESS:    4595857  HIT:    4595857  MISS:          0  HIT %:        100  MISS %:          0   MPKI: 0
L1I PREFETCH  REQUESTED:          0  ISSUED:          0  USEFUL:          0  USELESS:          0
L1I USEFUL LOAD PREFETCHES:          0 PREFETCH ISSUED TO LOWER LEVEL:          0  ACCURACY: -nan
L1I TIMELY PREFETCHES:          0 LATE PREFETCHES: 0 DROPPED PREFETCHES: 0
L1I PREFETCHES SAME FILL-ORIGIN LEVEL: 0 DIFFERENT FILL-ORIGIN LEVEL: 0
L1I AVERAGE MISS LATENCY: -nan cycles
L1I RQ	ACCESS:    6909950	FORWARD:          0	MERGED:    2314093	TO_CACHE:    4595857

BTB TOTAL     ACCESS:    5953193  HIT:    5953095  MISS:         98  HIT %:    99.9984  MISS %: 0.00164618   MPKI: 0.00392
BTB BRANCH_DIRECT_JUMP	ACCESS:      85874  HIT:      85848  MISS:         26
BTB BRANCH_INDIRECT	ACCESS:          0  HIT:          0  MISS:          0
BTB BRANCH_CONDITIONAL	ACCESS:    5783213  HIT:    5783164  MISS:         49
BTB BRANCH_DIRECT_CALL	ACCESS:      42053  HIT:      42043  MISS:         10
BTB BRANCH_INDIRECT_CALL	ACCESS:          0  HIT:          0  MISS:          0
BTB BRANCH_RETURN	ACCESS:      42053  HIT:      42040  MISS:         13
BTB BRANCH_OTHER ACCESS:          0  HIT:          0  MISS:          0

L2C TOTAL     ACCESS:    1965438  HIT:     121595  MISS:    1843843  HIT %:    6.18666  MISS %:    93.8133   MPKI: 73.7537
L2C LOAD      ACCESS:      65983  HIT:      12878  MISS:      53105  HIT %:    19.5171  MISS %:    80.4829   MPKI: 2.1242
L2C DATA LOAD MPKI: 2.1242
L2C INSTRUCTION LOAD MPKI: 0
L2C RFO       ACCESS:        476  HIT:        202  MISS:        274  HIT %:     42.437  MISS %:     57.563   MPKI: 0.01096
L2C PREFETCH  ACCESS:    1862874  HIT:      79868  MISS:    1783006  HIT %:    4.28735  MISS %:    95.7126   MPKI: 71.3202
AGUS PREFETCH L1 MISS: 0
L2C DATA PREFETCH MPKI: 71.3202
L2C INSTRUCTION PREFETCH MPKI: 0
L2C WRITEBACK ACCESS:       2835  HIT:       2830  MISS:          5  HIT %:    99.8236  MISS %:   0.176367   MPKI: 0.0002
L2C LOAD TRANSLATION ACCESS:      33268  HIT:      25817  MISS:       7451  HIT %:    77.6031  MISS %:    22.3969   MPKI: 0.29804
L2C TRANSLATION FROM L1D PREFETCHER ACCESS:          2  HIT:          0  MISS:          2  HIT %:          0  MISS %:        100   MPKI: 8e-05
L2C PREFETCH  REQUESTED:          0  ISSUED:          0  USEFUL:       4241  USELESS:    1778552
L2C USEFUL LOAD PREFETCHES:       4241 PREFETCH ISSUED TO LOWER LEVEL:    1783006  ACCURACY: 0.237857
L2C TIMELY PREFETCHES:       4241 LATE PREFETCHES: 0 DROPPED PREFETCHES: 0
L2C PREFETCHES SAME FILL-ORIGIN LEVEL: 0 DIFFERENT FILL-ORIGIN LEVEL: 0
L2C AVERAGE MISS LATENCY: 118.221 cycles
L2C RQ	ACCESS:      99731	FORWARD:          0	MERGED:          0	TO_CACHE:      99729
L2C WQ	ACCESS:       2835	FORWARD:          2	MERGED:          0	TO_CACHE:       2835
L2C PQ	ACCESS:    1862874	FORWARD:          0	MERGED:          0	TO_CACHE:    1862874

L2C Instructions Evicting Data 0
L2C Translations Evicting Data 7431
L2C Data Evicting Data 1828966
L2C Instructions Evicting Instructions 0
L2C Translations Evicting Instructions 0
L2C Data Evicting Instructions 0
L2C Instructions Evicting Translations 0
L2C Translations Evicting Translations 22
L2C Data Evicting Translations 7419
L2C Dense regions hint from L2: 0
PSCL5 TOTAL     ACCESS:      32655  HIT:      32655  MISS:          0  HIT %:        100  MISS %:          0   MPKI: 0
PSCL5 LOAD TRANSLATION ACCESS:      32654  HIT:      32654  MISS:          0  HIT %:        100  MISS %:          0   MPKI: 0
PSCL5 TRANSLATION FROM L1D PREFETCHER ACCESS:          1  HIT:          1  MISS:          0  HIT %:        100  MISS %:          0   MPKI: 0
PSCL5 PREFETCH  REQUESTED:          0  ISSUED:          0  USEFUL:          0  USELESS:          0
PSCL5 USEFUL LOAD PREFETCHES:          0 PREFETCH ISSUED TO LOWER LEVEL:          0  ACCURACY: -nan
PSCL5 TIMELY PREFETCHES:          0 LATE PREFETCHES: 0 DROPPED PREFETCHES: 0
PSCL5 PREFETCHES SAME FILL-ORIGIN LEVEL: 0 DIFFERENT FILL-ORIGIN LEVEL: 0

PSCL4 TOTAL     ACCESS:      32655  HIT:      32655  MISS:          0  HIT %:        100  MISS %:          0   MPKI: 0
PSCL4 LOAD TRANSLATION ACCESS:      32654  HIT:      32654  MISS:          0  HIT %:        100  MISS %:          0   MPKI: 0
PSCL4 TRANSLATION FROM L1D PREFETCHER ACCESS:          1  HIT:          1  MISS:          0  HIT %:        100  MISS %:          0   MPKI: 0
PSCL4 PREFETCH  REQUESTED:          0  ISSUED:          0  USEFUL:          0  USELESS:          0
PSCL4 USEFUL LOAD PREFETCHES:          0 PREFETCH ISSUED TO LOWER LEVEL:          0  ACCURACY: -nan
PSCL4 TIMELY PREFETCHES:          0 LATE PREFETCHES: 0 DROPPED PREFETCHES: 0
PSCL4 PREFETCHES SAME FILL-ORIGIN LEVEL: 0 DIFFERENT FILL-ORIGIN LEVEL: 0

PSCL3 TOTAL     ACCESS:      32655  HIT:      32655  MISS:          0  HIT %:        100  MISS %:          0   MPKI: 0
PSCL3 LOAD TRANSLATION ACCESS:      32654  HIT:      32654  MISS:          0  HIT %:        100  MISS %:          0   MPKI: 0
PSCL3 TRANSLATION FROM L1D PREFETCHER ACCESS:          1  HIT:          1  MISS:          0  HIT %:        100  MISS %:          0   MPKI: 0
PSCL3 PREFETCH  REQUESTED:          0  ISSUED:          0  USEFUL:          0  USELESS:          0
PSCL3 USEFUL LOAD PREFETCHES:          0 PREFETCH ISSUED TO LOWER LEVEL:          0  ACCURACY: -nan
PSCL3 TIMELY PREFETCHES:          0 LATE PREFETCHES: 0 DROPPED PREFETCHES: 0
PSCL3 PREFETCHES SAME FILL-ORIGIN LEVEL: 0 DIFFERENT FILL-ORIGIN LEVEL: 0

PSCL2 TOTAL     ACCESS:      32655  HIT:      31942  MISS:        713  HIT %:    97.8166  MISS %:    2.18343   MPKI: 0.02852
PSCL2 LOAD TRANSLATION ACCESS:      32655  HIT:      31942  MISS:        713  HIT %:    97.8166  MISS %:    2.18343   MPKI: 0.02852
PSCL2 PREFETCH  REQUESTED:          0  ISSUED:          0  USEFUL:          0  USELESS:          0
PSCL2 USEFUL LOAD PREFETCHES:          0 PREFETCH ISSUED TO LOWER LEVEL:          0  ACCURACY: -nan
PSCL2 TIMELY PREFETCHES:          0 LATE PREFETCHES: 0 DROPPED PREFETCHES: 0
PSCL2 PREFETCHES SAME FILL-ORIGIN LEVEL: 0 DIFFERENT FILL-ORIGIN LEVEL: 0

LLC TOTAL     ACCESS:    1846611  HIT:       8595  MISS:    1838016  HIT %:   0.465447  MISS %:    99.5346   MPKI: 73.5206
LLC LOAD      ACCESS:      53105  HIT:        598  MISS:      52507  HIT %:    1.12607  MISS %:    98.8739   MPKI: 2.10028
LLC RFO       ACCESS:        274  HIT:          1  MISS:        273  HIT %:   0.364964  MISS %:     99.635   MPKI: 0.01092
LLC PREFETCH  ACCESS:    1783006  HIT:       4908  MISS:    1778098  HIT %:   0.275265  MISS %:    99.7247   MPKI: 71.1239
AGUS PREFETCH L1 MISS: 0
LLC WRITEBACK ACCESS:       2773  HIT:       2757  MISS:         16  HIT %:     99.423  MISS %:   0.576992   MPKI: 0.00064
LLC LOAD TRANSLATION ACCESS:       7451  HIT:        331  MISS:       7120  HIT %:    4.44236  MISS %:    95.5576   MPKI: 0.2848
LLC TRANSLATION FROM L1D PREFETCHER ACCESS:          2  HIT:          0  MISS:          2  HIT %:          0  MISS %:        100   MPKI: 8e-05
LLC PREFETCH  REQUESTED:          0  ISSUED:          0  USEFUL:        227  USELESS:    1776951
LLC USEFUL LOAD PREFETCHES:        227 PREFETCH ISSUED TO LOWER LEVEL:    1778098  ACCURACY: 0.0127665
LLC TIMELY PREFETCHES:        227 LATE PREFETCHES: 0 DROPPED PREFETCHES: 0
LLC PREFETCHES SAME FILL-ORIGIN LEVEL: 0 DIFFERENT FILL-ORIGIN LEVEL: 0
LLC AVERAGE MISS LATENCY: 88.3906 cycles
LLC RQ	ACCESS:      60832	FORWARD:          0	MERGED:          0	TO_CACHE:      60832
LLC WQ	ACCESS:       2773	FORWARD:          0	MERGED:          0	TO_CACHE:       2773
LLC PQ	ACCESS:    1783006	FORWARD:          0	MERGED:          0	TO_CACHE:    1783006

LLC Dense regions hint to LLC: 0

RAW hits: 4007
Loads Generated: 8976947
Loads sent to L1D: 8972940
Stores Generated: 370377
Stores sent to L1D: 370377
Major fault: 0 Minor fault: 48857
Allocated PAGES: 48857
CPU 0 L1D complex stride prefetcher final stats
Degree: 15

DRAM Statistics
 CHANNEL 0
 RQ ROW_BUFFER_HIT:    1738070  ROW_BUFFER_MISS:      99930
 DBUS_CONGESTED:        153
 WQ ROW_BUFFER_HIT:        385  ROW_BUFFER_MISS:       2384  FULL:          0

 AVG_CONGESTED_CYCLE: 4
 All warmup complete: 2
Channel 0 Bank busy for read cycles: 0
Channel 0 Bank busy for write cycles: 0
Channel 0
Rank 0
0banks busy for read cycles: 27789079
0banks busy for write cycles: 1286
1banks busy for read cycles: 15978961
1banks busy for write cycles: 181052
2banks busy for read cycles: 7760461
2banks busy for write cycles: 68924
3banks busy for read cycles: 4777369
3banks busy for write cycles: 39904
4banks busy for read cycles: 2989013
4banks busy for write cycles: 16346
5banks busy for read cycles: 1377141
5banks busy for write cycles: 8669
6banks busy for read cycles: 747053
6banks busy for write cycles: 3438
7banks busy for read cycles: 1114247
7banks busy for write cycles: 2896
8banks busy for read cycles: 3117393
8banks busy for write cycles: 1975

CPU 0 Branch Prediction Accuracy: 99.1323% MPKI: 3.09396 Average ROB Occupancy at Mispredict: 106.396
Branch types
NOT_BRANCH: 16085563 64.3423%
BRANCH_DIRECT_JUMP: 85874 0.343496%
BRANCH_INDIRECT: 0 0%
BRANCH_CONDITIONAL: 8744101 34.9764%
BRANCH_DIRECT_CALL: 42053 0.168212%
BRANCH_INDIRECT_CALL: 0 0%
BRANCH_RETURN: 42053 0.168212%
BRANCH_OTHER: 0 0%

DRAM PAGES: 1048576
Allocated PAGES: 48857
