
*** ChampSim Multicore Out-of-Order Simulator ***

Warmup Instructions: 25000000
Simulation Instructions: 25000000
Number of CPUs: 1
LLC sets: 2048
LLC ways: 16
Off-chip DRAM Size: 4096 MB Channels: 1 Width: 64-bit Data Rate: 6400 MT/s
CPU 0 runs ./traces/trace1.champsimtrace.xz
.xz
CPU 0 Bimodal branch predictor
BTB has LRU replacement policy
ITLB has LRU replacement policy
DTLB has LRU replacement policy
STLB has LRU replacement policy
L1I has LRU replacement policy
CPU 0 L1D Optimized prefetcher
L1D has LRU replacement policy
L2C has LRU replacement policy
LLC has LRU replacement policy
Heartbeat CPU 0 instructions: 10000003 cycles: 2830061 heartbeat IPC: 3.53349 cumulative IPC: 3.53349 (Simulation time: 0 hr 0 min 18 sec) 
Heartbeat CPU 0 instructions: 20000003 cycles: 5650207 heartbeat IPC: 3.54592 cumulative IPC: 3.53969 (Simulation time: 0 hr 0 min 36 sec) 

Warmup complete CPU 0 instructions: 25000004 cycles: 7064357 (Simulation time: 0 hr 0 min 44 sec) 

Heartbeat CPU 0 instructions: 30000002 cycles: 19406832 heartbeat IPC: 0.726922 cumulative IPC: 0.405105 (Simulation time: 0 hr 1 min 7 sec) 
Heartbeat CPU 0 instructions: 40000002 cycles: 46570960 heartbeat IPC: 0.368133 cumulative IPC: 0.379683 (Simulation time: 0 hr 1 min 50 sec) 
Heartbeat CPU 0 instructions: 50000000 cycles: 70862617 heartbeat IPC: 0.411664 cumulative IPC: 0.39186 (Simulation time: 0 hr 2 min 36 sec) 
Finished CPU 0 instructions: 25000000 cycles: 63798261 cumulative IPC: 0.39186 (Simulation time: 0 hr 2 min 36 sec) 

ChampSim completed all CPUs

Region of Interest Statistics

CPU 0 cumulative IPC: 0.39186 instructions: 25000000 cycles: 63798261
ITLB TOTAL     ACCESS:    4492541  HIT:    4492541  MISS:          0  HIT %:        100  MISS %:          0   MPKI: 0
ITLB LOAD TRANSLATION ACCESS:    4492541  HIT:    4492541  MISS:          0  HIT %:        100  MISS %:          0   MPKI: 0
ITLB PREFETCH  REQUESTED:          0  ISSUED:          0  USEFUL:          0  USELESS:          0
ITLB USEFUL LOAD PREFETCHES:          0 PREFETCH ISSUED TO LOWER LEVEL:          0  ACCURACY: -nan
ITLB TIMELY PREFETCHES:          0 LATE PREFETCHES: 0 DROPPED PREFETCHES: 0
ITLB PREFETCHES SAME FILL-ORIGIN LEVEL: 0 DIFFERENT FILL-ORIGIN LEVEL: 0
ITLB AVERAGE MISS LATENCY: -nan cycles
ITLB RQ	ACCESS:    4831522	FORWARD:          0	MERGED:     338982	TO_CACHE:    4492540

DTLB TOTAL     ACCESS:    3802643  HIT:    3139973  MISS:     662670  HIT %:    82.5734  MISS %:    17.4266   MPKI: 26.5068
DTLB LOAD TRANSLATION ACCESS:    3802643  HIT:    3139973  MISS:     662670  HIT %:    82.5734  MISS %:    17.4266   MPKI: 26.5068
DTLB PREFETCH  REQUESTED:          0  ISSUED:          0  USEFUL:          0  USELESS:          0
DTLB USEFUL LOAD PREFETCHES:          0 PREFETCH ISSUED TO LOWER LEVEL:          0  ACCURACY: -nan
DTLB TIMELY PREFETCHES:          0 LATE PREFETCHES: 0 DROPPED PREFETCHES: 0
DTLB PREFETCHES SAME FILL-ORIGIN LEVEL: 0 DIFFERENT FILL-ORIGIN LEVEL: 0
DTLB AVERAGE MISS LATENCY: 80.537 cycles
DTLB RQ	ACCESS:    4396334	FORWARD:          0	MERGED:     589993	TO_CACHE:    3806341

STLB TOTAL     ACCESS:    3230382  HIT:    2668215  MISS:     562167  HIT %:    82.5975  MISS %:    17.4025   MPKI: 22.4867
STLB LOAD TRANSLATION ACCESS:     662670  HIT:     100705  MISS:     561965  HIT %:    15.1969  MISS %:    84.8031   MPKI: 22.4786
STLB TRANSLATION FROM L1D PREFETCHER ACCESS:    2567712  HIT:    2567510  MISS:        202  HIT %:    99.9921  MISS %: 0.00786693   MPKI: 0.00808
STLB PREFETCH  REQUESTED:          0  ISSUED:          0  USEFUL:        202  USELESS:          0
STLB USEFUL LOAD PREFETCHES:        202 PREFETCH ISSUED TO LOWER LEVEL:          0  ACCURACY: inf
STLB TIMELY PREFETCHES:        202 LATE PREFETCHES: 0 DROPPED PREFETCHES: 0
STLB PREFETCHES SAME FILL-ORIGIN LEVEL: 0 DIFFERENT FILL-ORIGIN LEVEL: 0
STLB AVERAGE MISS LATENCY: 84.24 cycles
STLB RQ	ACCESS:   12763315	FORWARD:          0	MERGED:    9532928	TO_CACHE:    3230387

STLB Hit, L1D data hit: 0
STLB Hit, L2C data hit: 0
STLB Hit, LLC data hit: 0
STLB Hit, LLC data miss: 0
STLB STLB hints to L2: 0
L1D TOTAL     ACCESS:   15991949  HIT:   10573734  MISS:    5418215  HIT %:    66.1191  MISS %:    33.8809   MPKI: 216.729
L1D LOAD      ACCESS:    3266408  HIT:    2038883  MISS:    1227525  HIT %:    62.4197  MISS %:    37.5803   MPKI: 49.101
L1D RFO       ACCESS:    1108669  HIT:    1039309  MISS:      69360  HIT %:    93.7438  MISS %:    6.25615   MPKI: 2.7744
L1D PREFETCH  ACCESS:   11616872  HIT:    7495542  MISS:    4121330  HIT %:    64.5229  MISS %:    35.4771   MPKI: 164.853
AGUS PREFETCH L1 MISS: 0
L1D PREFETCH  REQUESTED:   28073747  ISSUED:   27996771  USEFUL:      18894  USELESS:    4101857
L1D USEFUL LOAD PREFETCHES:      18894 PREFETCH ISSUED TO LOWER LEVEL:    4125063  ACCURACY: 0.458029
L1D TIMELY PREFETCHES:      18894 LATE PREFETCHES: 3730 DROPPED PREFETCHES: 0
L1D PREFETCHES SAME FILL-ORIGIN LEVEL: 4125063 DIFFERENT FILL-ORIGIN LEVEL: 0
L1D AVERAGE MISS LATENCY: 33064.7 cycles
L1D RQ	ACCESS:    6149582	FORWARD:          0	MERGED:    2809342	TO_CACHE:    3287663
L1D WQ	ACCESS:    1108674	FORWARD:      52577	MERGED:          3	TO_CACHE:    1108671
L1D PQ	ACCESS:   15896130	FORWARD:          0	MERGED:    3795489	TO_CACHE:   12100641

L1D UNIQUE REGIONS ACCESSED: 0
L1D REGIONS CONFLICTS: 0
L1D Cross Page Prefetch Requests: 0
L1D Same Page Prefetch Requests: 15896130
L1D ROI Sum of L1D PQ occupancy: 168392399
L1D PREFETCHES PUSHED FROM L2C: 0
L1I TOTAL     ACCESS:    4831522  HIT:    4831522  MISS:          0  HIT %:        100  MISS %:          0   MPKI: 0
L1I LOAD      ACCESS:    4831522  HIT:    4831522  MISS:          0  HIT %:        100  MISS %:          0   MPKI: 0
L1I PREFETCH  REQUESTED:          0  ISSUED:          0  USEFUL:          0  USELESS:          0
L1I USEFUL LOAD PREFETCHES:          0 PREFETCH ISSUED TO LOWER LEVEL:          0  ACCURACY: -nan
L1I TIMELY PREFETCHES:          0 LATE PREFETCHES: 0 DROPPED PREFETCHES: 0
L1I PREFETCHES SAME FILL-ORIGIN LEVEL: 0 DIFFERENT FILL-ORIGIN LEVEL: 0
L1I AVERAGE MISS LATENCY: -nan cycles
L1I RQ	ACCESS:    7355213	FORWARD:          0	MERGED:    2523691	TO_CACHE:    4831522

BTB TOTAL     ACCESS:    3283969  HIT:    3283961  MISS:          8  HIT %:    99.9998  MISS %: 0.000243608   MPKI: 0.00032
BTB BRANCH_DIRECT_JUMP	ACCESS:     568311  HIT:     568309  MISS:          2
BTB BRANCH_INDIRECT	ACCESS:          0  HIT:          0  MISS:          0
BTB BRANCH_CONDITIONAL	ACCESS:    1606988  HIT:    1606984  MISS:          4
BTB BRANCH_DIRECT_CALL	ACCESS:     554335  HIT:     554334  MISS:          1
BTB BRANCH_INDIRECT_CALL	ACCESS:          0  HIT:          0  MISS:          0
BTB BRANCH_RETURN	ACCESS:     554335  HIT:     554334  MISS:          1
BTB BRANCH_OTHER ACCESS:          0  HIT:          0  MISS:          0

L2C TOTAL     ACCESS:    6611997  HIT:    1948901  MISS:    4663096  HIT %:    29.4752  MISS %:    70.5248   MPKI: 186.524
L2C LOAD      ACCESS:    1223795  HIT:     301430  MISS:     922365  HIT %:    24.6308  MISS %:    75.3692   MPKI: 36.8946
L2C DATA LOAD MPKI: 36.8946
L2C INSTRUCTION LOAD MPKI: 0
L2C RFO       ACCESS:      69360  HIT:        795  MISS:      68565  HIT %:    1.14619  MISS %:    98.8538   MPKI: 2.7426
L2C PREFETCH  ACCESS:    4125060  HIT:    1012806  MISS:    3112254  HIT %:    24.5525  MISS %:    75.4475   MPKI: 124.49
AGUS PREFETCH L1 MISS: 0
L2C DATA PREFETCH MPKI: 124.49
L2C INSTRUCTION PREFETCH MPKI: 0
L2C WRITEBACK ACCESS:     554589  HIT:     554584  MISS:          5  HIT %:    99.9991  MISS %: 0.000901569   MPKI: 0.0002
L2C LOAD TRANSLATION ACCESS:     638789  HIT:      79286  MISS:     559503  HIT %:    12.4119  MISS %:    87.5881   MPKI: 22.3801
L2C TRANSLATION FROM L1D PREFETCHER ACCESS:        404  HIT:          0  MISS:        404  HIT %:          0  MISS %:        100   MPKI: 0.01616
L2C PREFETCH  REQUESTED:          0  ISSUED:          0  USEFUL:       4031  USELESS:    3103233
L2C USEFUL LOAD PREFETCHES:       4031 PREFETCH ISSUED TO LOWER LEVEL:    3112257  ACCURACY: 0.12952
L2C TIMELY PREFETCHES:       4031 LATE PREFETCHES: 0 DROPPED PREFETCHES: 0
L2C PREFETCHES SAME FILL-ORIGIN LEVEL: 0 DIFFERENT FILL-ORIGIN LEVEL: 0
L2C AVERAGE MISS LATENCY: 65.1497 cycles
L2C RQ	ACCESS:    1932349	FORWARD:          0	MERGED:          0	TO_CACHE:    1932349
L2C WQ	ACCESS:     554589	FORWARD:          0	MERGED:          0	TO_CACHE:     554589
L2C PQ	ACCESS:    4125063	FORWARD:          0	MERGED:          0	TO_CACHE:    4125063

L2C Instructions Evicting Data 0
L2C Translations Evicting Data 484175
L2C Data Evicting Data 3617120
L2C Instructions Evicting Instructions 0
L2C Translations Evicting Instructions 0
L2C Data Evicting Instructions 0
L2C Instructions Evicting Translations 0
L2C Translations Evicting Translations 75732
L2C Data Evicting Translations 486064
L2C Dense regions hint from L2: 0
PSCL5 TOTAL     ACCESS:     562169  HIT:     562169  MISS:          0  HIT %:        100  MISS %:          0   MPKI: 0
PSCL5 LOAD TRANSLATION ACCESS:     561967  HIT:     561967  MISS:          0  HIT %:        100  MISS %:          0   MPKI: 0
PSCL5 TRANSLATION FROM L1D PREFETCHER ACCESS:        202  HIT:        202  MISS:          0  HIT %:        100  MISS %:          0   MPKI: 0
PSCL5 PREFETCH  REQUESTED:          0  ISSUED:          0  USEFUL:          0  USELESS:          0
PSCL5 USEFUL LOAD PREFETCHES:          0 PREFETCH ISSUED TO LOWER LEVEL:          0  ACCURACY: -nan
PSCL5 TIMELY PREFETCHES:          0 LATE PREFETCHES: 0 DROPPED PREFETCHES: 0
PSCL5 PREFETCHES SAME FILL-ORIGIN LEVEL: 0 DIFFERENT FILL-ORIGIN LEVEL: 0

PSCL4 TOTAL     ACCESS:     562169  HIT:     562169  MISS:          0  HIT %:        100  MISS %:          0   MPKI: 0
PSCL4 LOAD TRANSLATION ACCESS:     561967  HIT:     561967  MISS:          0  HIT %:        100  MISS %:          0   MPKI: 0
PSCL4 TRANSLATION FROM L1D PREFETCHER ACCESS:        202  HIT:        202  MISS:          0  HIT %:        100  MISS %:          0   MPKI: 0
PSCL4 PREFETCH  REQUESTED:          0  ISSUED:          0  USEFUL:          0  USELESS:          0
PSCL4 USEFUL LOAD PREFETCHES:          0 PREFETCH ISSUED TO LOWER LEVEL:          0  ACCURACY: -nan
PSCL4 TIMELY PREFETCHES:          0 LATE PREFETCHES: 0 DROPPED PREFETCHES: 0
PSCL4 PREFETCHES SAME FILL-ORIGIN LEVEL: 0 DIFFERENT FILL-ORIGIN LEVEL: 0

PSCL3 TOTAL     ACCESS:     562169  HIT:     562169  MISS:          0  HIT %:        100  MISS %:          0   MPKI: 0
PSCL3 LOAD TRANSLATION ACCESS:     561967  HIT:     561967  MISS:          0  HIT %:        100  MISS %:          0   MPKI: 0
PSCL3 TRANSLATION FROM L1D PREFETCHER ACCESS:        202  HIT:        202  MISS:          0  HIT %:        100  MISS %:          0   MPKI: 0
PSCL3 PREFETCH  REQUESTED:          0  ISSUED:          0  USEFUL:          0  USELESS:          0
PSCL3 USEFUL LOAD PREFETCHES:          0 PREFETCH ISSUED TO LOWER LEVEL:          0  ACCURACY: -nan
PSCL3 TIMELY PREFETCHES:          0 LATE PREFETCHES: 0 DROPPED PREFETCHES: 0
PSCL3 PREFETCHES SAME FILL-ORIGIN LEVEL: 0 DIFFERENT FILL-ORIGIN LEVEL: 0

PSCL2 TOTAL     ACCESS:     562168  HIT:     485143  MISS:      77025  HIT %:    86.2986  MISS %:    13.7014   MPKI: 3.081
PSCL2 LOAD TRANSLATION ACCESS:     562168  HIT:     485143  MISS:      77025  HIT %:    86.2986  MISS %:    13.7014   MPKI: 3.081
PSCL2 PREFETCH  REQUESTED:          0  ISSUED:          0  USEFUL:          0  USELESS:          0
PSCL2 USEFUL LOAD PREFETCHES:          0 PREFETCH ISSUED TO LOWER LEVEL:          0  ACCURACY: -nan
PSCL2 TIMELY PREFETCHES:          0 LATE PREFETCHES: 0 DROPPED PREFETCHES: 0
PSCL2 PREFETCHES SAME FILL-ORIGIN LEVEL: 0 DIFFERENT FILL-ORIGIN LEVEL: 0

LLC TOTAL     ACCESS:    5220426  HIT:    4453054  MISS:     767372  HIT %:    85.3006  MISS %:    14.6994   MPKI: 30.6949
LLC LOAD      ACCESS:     922365  HIT:     882304  MISS:      40061  HIT %:    95.6567  MISS %:    4.34329   MPKI: 1.60244
LLC RFO       ACCESS:      68565  HIT:      67642  MISS:        923  HIT %:    98.6538  MISS %:    1.34617   MPKI: 0.03692
LLC PREFETCH  ACCESS:    3112254  HIT:    2400755  MISS:     711499  HIT %:    77.1388  MISS %:    22.8612   MPKI: 28.46
AGUS PREFETCH L1 MISS: 0
LLC WRITEBACK ACCESS:     557335  HIT:     557335  MISS:          0  HIT %:        100  MISS %:          0   MPKI: 0
LLC LOAD TRANSLATION ACCESS:     559503  HIT:     544618  MISS:      14885  HIT %:    97.3396  MISS %:     2.6604   MPKI: 0.5954
LLC TRANSLATION FROM L1D PREFETCHER ACCESS:        404  HIT:        400  MISS:          4  HIT %:    99.0099  MISS %:   0.990099   MPKI: 0.00016
LLC PREFETCH  REQUESTED:          0  ISSUED:          0  USEFUL:     603289  USELESS:      93680
LLC USEFUL LOAD PREFETCHES:     603289 PREFETCH ISSUED TO LOWER LEVEL:     711502  ACCURACY: 84.7909
LLC TIMELY PREFETCHES:     603289 LATE PREFETCHES: 0 DROPPED PREFETCHES: 0
LLC PREFETCHES SAME FILL-ORIGIN LEVEL: 0 DIFFERENT FILL-ORIGIN LEVEL: 0
LLC AVERAGE MISS LATENCY: 209.909 cycles
LLC RQ	ACCESS:    1550837	FORWARD:          0	MERGED:          0	TO_CACHE:    1550837
LLC WQ	ACCESS:     557335	FORWARD:          0	MERGED:          0	TO_CACHE:     557335
LLC PQ	ACCESS:    3112257	FORWARD:          0	MERGED:          0	TO_CACHE:    3112257

LLC Dense regions hint to LLC: 0

RAW hits: 500957
Loads Generated: 6650541
Loads sent to L1D: 6149582
Stores Generated: 1108674
Stores sent to L1D: 1108674
Major fault: 0 Minor fault: 23115
Allocated PAGES: 23115
CPU 0 L1D optimized prefetcher final stats
Degree: 5
0
0
0

DRAM Statistics
 CHANNEL 0
 RQ ROW_BUFFER_HIT:       9899  ROW_BUFFER_MISS:     757474
 DBUS_CONGESTED:         10
 WQ ROW_BUFFER_HIT:     154639  ROW_BUFFER_MISS:     413931  FULL:          0

 AVG_CONGESTED_CYCLE: 4
 All warmup complete: 2
Channel 0 Bank busy for read cycles: 0
Channel 0 Bank busy for write cycles: 0
Channel 0
Rank 0
0banks busy for read cycles: 141983
0banks busy for write cycles: 20
1banks busy for read cycles: 12108610
1banks busy for write cycles: 143309
2banks busy for read cycles: 14921986
2banks busy for write cycles: 142790
3banks busy for read cycles: 10271898
3banks busy for write cycles: 145079
4banks busy for read cycles: 4433803
4banks busy for write cycles: 151738
5banks busy for read cycles: 1215716
5banks busy for write cycles: 159371
6banks busy for read cycles: 1852741
6banks busy for write cycles: 193352
7banks busy for read cycles: 744896
7banks busy for write cycles: 943285
8banks busy for read cycles: 276705
8banks busy for write cycles: 15950980

CPU 0 Branch Prediction Accuracy: 99.9685% MPKI: 0.04912 Average ROB Occupancy at Mispredict: 157.083
Branch types
NOT_BRANCH: 21105674 84.4227%
BRANCH_DIRECT_JUMP: 568311 2.27324%
BRANCH_INDIRECT: 0 0%
BRANCH_CONDITIONAL: 2217340 8.86936%
BRANCH_DIRECT_CALL: 554335 2.21734%
BRANCH_INDIRECT_CALL: 0 0%
BRANCH_RETURN: 554335 2.21734%
BRANCH_OTHER: 0 0%

DRAM PAGES: 1048576
Allocated PAGES: 23115
